/*---------------------------------------------------------------------------*\
| =========                 |                                                 |
| \\      /  F ield         | OpenFOAM: The Open Source CFD Toolbox           |
|  \\    /   O peration     | Version:  2.1.x                                 |
|   \\  /    A nd           | Web:      www.OpenFOAM.org                      |
|    \\/     M anipulation  |                                                 |
\*---------------------------------------------------------------------------*/
Build  : 2.1.x-c1ac31b96c04
Exec   : pisoFoam
Date   : Oct 12 2012
Time   : 17:58:59
Host   : "ubuntu"
PID    : 7604
Case   : /home/houken/OpenFOAM/houken-2.1.x/run/tutorials/incompressible/pisoFoam/les/pitzDaily
nProcs : 1
sigFpe : Enabling floating point exception trapping (FOAM_SIGFPE).
fileModificationChecking : Monitoring run-time modified files using timeStampMaster
allowSystemOperations : Disallowing user-supplied system call operations

// * * * * * * * * * * * * * * * * * * * * * * * * * * * * * * * * * * * * * //
Create time

Create mesh for time = 0

Reading field p

Reading field U

Reading/calculating face flux field phi

Selecting incompressible transport model Newtonian
Selecting turbulence model type LESModel
Selecting LES turbulence model oneEqEddy
--> FOAM Warning :
From function cubeRootVolDelta::calcDelta()
in file cubeRootVolDelta/cubeRootVolDelta.C at line 52
Case is 2D, LES is not strictly applicable

bounding k, min: 0 max: 2e-05 average: 0
oneEqEddyCoeffs
{
ce              1.048;
ck              0.094;
}


Starting time loop

Reading/calculating field UMean

Reading/calculating field pMean

Reading/calculating field UPrime2Mean

Reading/calculating field pPrime2Mean

fieldAverage: starting averaging at time 0

Reading surface description:
nearWall

Time = 1e-05

Courant Number mean: 8.74894e-05 max: 0.0315889
DILUPBiCG:  Solving for Ux, Initial residual = 1, Final residual = 6.98877e-09, No Iterations 1
DILUPBiCG:  Solving for Uy, Initial residual = 1, Final residual = 6.98431e-09, No Iterations 1
DICPCG:  Solving for p, Initial residual = 1, Final residual = 0.0447393, No Iterations 163
time step continuity errors : sum local = 7.81014e-06, global = -4.62442e-08, cumulative = -4.62442e-08
DICPCG:  Solving for p, Initial residual = 0.0109018, Final residual = 7.85498e-07, No Iterations 188
time step continuity errors : sum local = 1.53911e-08, global = 1.40155e-10, cumulative = -4.6104e-08
DILUPBiCG:  Solving for k, Initial residual = 0.56448, Final residual = 8.3549e-09, No Iterations 2
bounding k, min: -1.49347e-10 max: 0.000257234 average: 6.74265e-08
ExecutionTime = 1.55 s  ClockTime = 2 s

Calculating averages

Time = 2e-05

Courant Number mean: 0.0421767 max: 0.957013
DILUPBiCG:  Solving for Ux, Initial residual = 0.858424, Final residual = 5.47796e-07, No Iterations 2
DILUPBiCG:  Solving for Uy, Initial residual = 0.222745, Final residual = 1.37643e-06, No Iterations 2
DICPCG:  Solving for p, Initial residual = 0.0187427, Final residual = 0.000890617, No Iterations 166
time step continuity errors : sum local = 1.16915e-05, global = 6.87909e-08, cumulative = 2.26868e-08
DICPCG:  Solving for p, Initial residual = 0.0341813, Final residual = 9.60416e-07, No Iterations 195
time step continuity errors : sum local = 6.42832e-09, global = -1.35684e-11, cumulative = 2.26733e-08
DILUPBiCG:  Solving for k, Initial residual = 0.659054, Final residual = 2.94538e-07, No Iterations 2
bounding k, min: 0 max: 0.00289205 average: 9.9216e-07
ExecutionTime = 2.25 s  ClockTime = 2 s

Calculating averages

Time = 3e-05

Courant Number mean: 0.0421632 max: 0.948218
DILUPBiCG:  Solving for Ux, Initial residual = 0.68774, Final residual = 4.73316e-07, No Iterations 2
DILUPBiCG:  Solving for Uy, Initial residual = 0.0906121, Final residual = 5.52175e-07, No Iterations 2
DICPCG:  Solving for p, Initial residual = 0.0173453, Final residual = 0.00072521, No Iterations 165
time step continuity errors : sum local = 4.72928e-06, global = -3.36987e-08, cumulative = -1.10254e-08
DICPCG:  Solving for p, Initial residual = 0.501062, Final residual = 8.90977e-07, No Iterations 210
time step continuity errors : sum local = 1.34869e-10, global = -8.95295e-13, cumulative = -1.10263e-08
DILUPBiCG:  Solving for k, Initial residual = 0.798371, Final residual = 1.94881e-06, No Iterations 2
bounding k, min: 0 max: 0.0193759 average: 2.36803e-05
ExecutionTime = 2.98 s  ClockTime = 3 s

Calculating averages

Time = 4e-05

Courant Number mean: 0.0421562 max: 0.940339
DILUPBiCG:  Solving for Ux, Initial residual = 0.0030411, Final residual = 2.4902e-06, No Iterations 1
DILUPBiCG:  Solving for Uy, Initial residual = 0.00140072, Final residual = 6.61672e-06, No Iterations 1
DICPCG:  Solving for p, Initial residual = 0.201335, Final residual = 0.010042, No Iterations 8
time step continuity errors : sum local = 8.80245e-07, global = -1.75031e-07, cumulative = -1.86057e-07
DICPCG:  Solving for p, Initial residual = 0.0143602, Final residual = 8.92407e-07, No Iterations 195
time step continuity errors : sum local = 7.15894e-11, global = 5.54174e-15, cumulative = -1.86057e-07
DILUPBiCG:  Solving for k, Initial residual = 0.538859, Final residual = 1.68213e-06, No Iterations 2
bounding k, min: 0 max: 0.158326 average: 0.000179887
ExecutionTime = 3.54 s  ClockTime = 4 s

Calculating averages

Time = 5e-05

Courant Number mean: 0.0421577 max: 0.933326
DILUPBiCG:  Solving for Ux, Initial residual = 0.00159845, Final residual = 1.61193e-06, No Iterations 1
DILUPBiCG:  Solving for Uy, Initial residual = 0.00117941, Final residual = 3.6203e-07, No Iterations 2
DICPCG:  Solving for p, Initial residual = 0.151265, Final residual = 0.00652891, No Iterations 144
time step continuity errors : sum local = 4.59692e-07, global = -2.90935e-09, cumulative = -1.88967e-07
DICPCG:  Solving for p, Initial residual = 0.0101459, Final residual = 8.88568e-07, No Iterations 184
time step continuity errors : sum local = 7.37525e-11, global = -6.94044e-15, cumulative = -1.88967e-07
DILUPBiCG:  Solving for k, Initial residual = 0.316, Final residual = 3.88167e-07, No Iterations 2
bounding k, min: 0 max: 0.606512 average: 0.000653947
ExecutionTime = 4.22 s  ClockTime = 4 s

Calculating averages

Time = 6e-05

Courant Number mean: 0.0421943 max: 0.930022
DILUPBiCG:  Solving for Ux, Initial residual = 0.00518808, Final residual = 3.27954e-06, No Iterations 1
DILUPBiCG:  Solving for Uy, Initial residual = 0.00118652, Final residual = 4.05918e-07, No Iterations 2
DICPCG:  Solving for p, Initial residual = 0.10663, Final residual = 0.00459693, No Iterations 145
time step continuity errors : sum local = 3.70283e-07, global = 5.7586e-10, cumulative = -1.88391e-07
DICPCG:  Solving for p, Initial residual = 0.0108744, Final residual = 9.58863e-07, No Iterations 185
time step continuity errors : sum local = 5.9123e-11, global = 1.04138e-13, cumulative = -1.88391e-07
DILUPBiCG:  Solving for k, Initial residual = 0.202265, Final residual = 6.50176e-07, No Iterations 2
bounding k, min: 0 max: 1.478 average: 0.0016085
ExecutionTime = 4.89 s  ClockTime = 5 s

Calculating averages

Time = 7e-05

Courant Number mean: 0.0422073 max: 0.926249
DILUPBiCG:  Solving for Ux, Initial residual = 0.00150424, Final residual = 4.70872e-06, No Iterations 1
DILUPBiCG:  Solving for Uy, Initial residual = 0.000932111, Final residual = 6.36334e-06, No Iterations 1
DICPCG:  Solving for p, Initial residual = 0.1171, Final residual = 0.00559442, No Iterations 140
time step continuity errors : sum local = 3.29718e-07, global = -3.18418e-09, cumulative = -1.91575e-07
DICPCG:  Solving for p, Initial residual = 0.008465, Final residual = 9.47666e-07, No Iterations 181
time step continuity errors : sum local = 6.26069e-11, global = 5.22664e-13, cumulative = -1.91574e-07
DILUPBiCG:  Solving for k, Initial residual = 0.140713, Final residual = 5.96073e-07, No Iterations 2
bounding k, min: 0 max: 2.75343 average: 0.00314114
ExecutionTime = 5.56 s  ClockTime = 6 s

Calculating averages

Time = 8e-05

Courant Number mean: 0.0421771 max: 0.917713
DILUPBiCG:  Solving for Ux, Initial residual = 0.0039561, Final residual = 1.40592e-07, No Iterations 2
DILUPBiCG:  Solving for Uy, Initial residual = 0.000930339, Final residual = 5.3702e-06, No Iterations 1
DICPCG:  Solving for p, Initial residual = 0.0904452, Final residual = 0.00409516, No Iterations 13
time step continuity errors : sum local = 2.62338e-07, global = -1.73806e-08, cumulative = -2.08955e-07
DICPCG:  Solving for p, Initial residual = 0.00540667, Final residual = 9.35195e-07, No Iterations 189
time step continuity errors : sum local = 5.82635e-11, global = -1.53806e-13, cumulative = -2.08955e-07
DILUPBiCG:  Solving for k, Initial residual = 0.103473, Final residual = 6.46922e-07, No Iterations 2
bounding k, min: 0 max: 4.28722 average: 0.00527728
ExecutionTime = 6.13 s  ClockTime = 6 s

Calculating averages

Time = 9e-05

Courant Number mean: 0.0421398 max: 0.902901
DILUPBiCG:  Solving for Ux, Initial residual = 0.0039959, Final residual = 8.20596e-08, No Iterations 2
DILUPBiCG:  Solving for Uy, Initial residual = 0.000895984, Final residual = 3.94137e-06, No Iterations 1
DICPCG:  Solving for p, Initial residual = 0.0777789, Final residual = 0.00388876, No Iterations 155
time step continuity errors : sum local = 2.26743e-07, global = -1.00039e-09, cumulative = -2.09956e-07
DICPCG:  Solving for p, Initial residual = 0.00783078, Final residual = 7.83918e-07, No Iterations 187
time step continuity errors : sum local = 9.08268e-11, global = -4.52633e-13, cumulative = -2.09956e-07
DILUPBiCG:  Solving for k, Initial residual = 0.0785989, Final residual = 1.68454e-06, No Iterations 2
bounding k, min: 0 max: 5.92817 average: 0.00796947
ExecutionTime = 6.81 s  ClockTime = 7 s

Calculating averages

Time = 0.0001

Courant Number mean: 0.0419665 max: 0.879245
DILUPBiCG:  Solving for Ux, Initial residual = 0.0185491, Final residual = 2.09943e-07, No Iterations 2
DILUPBiCG:  Solving for Uy, Initial residual = 0.00169211, Final residual = 4.71844e-06, No Iterations 1
DICPCG:  Solving for p, Initial residual = 0.0451043, Final residual = 0.00205626, No Iterations 162
time step continuity errors : sum local = 2.37898e-07, global = -7.25703e-10, cumulative = -2.10682e-07
DICPCG:  Solving for p, Initial residual = 0.0140467, Final residual = 9.48103e-07, No Iterations 189
time step continuity errors : sum local = 1.65689e-10, global = 1.15593e-12, cumulative = -2.10681e-07
DILUPBiCG:  Solving for k, Initial residual = 0.0622124, Final residual = 5.40955e-07, No Iterations 2
bounding k, min: 0 max: 8.39252 average: 0.0111802
ExecutionTime = 7.51 s  ClockTime = 8 s

Calculating averages

Time = 0.00011

Courant Number mean: 0.0421863 max: 0.860996
DILUPBiCG:  Solving for Ux, Initial residual = 0.0298075, Final residual = 4.04517e-06, No Iterations 1
DILUPBiCG:  Solving for Uy, Initial residual = 0.00269627, Final residual = 7.04494e-06, No Iterations 1
DICPCG:  Solving for p, Initial residual = 0.0272207, Final residual = 0.00121336, No Iterations 159
time step continuity errors : sum local = 2.11091e-07, global = 6.41674e-10, cumulative = -2.10039e-07
DICPCG:  Solving for p, Initial residual = 0.0184901, Final residual = 9.17467e-07, No Iterations 191
time step continuity errors : sum local = 6.76205e-11, global = -2.00358e-13, cumulative = -2.10039e-07
DILUPBiCG:  Solving for k, Initial residual = 0.0502369, Final residual = 1.73164e-07, No Iterations 2
bounding k, min: 0 max: 11.0851 average: 0.0148234
ExecutionTime = 8.21 s  ClockTime = 8 s

Calculating averages

Time = 0.00012

Courant Number mean: 0.0423206 max: 0.838871
DILUPBiCG:  Solving for Ux, Initial residual = 0.0095692, Final residual = 1.8985e-06, No Iterations 1
DILUPBiCG:  Solving for Uy, Initial residual = 0.00142238, Final residual = 5.3046e-06, No Iterations 1
DICPCG:  Solving for p, Initial residual = 0.0682143, Final residual = 0.00298902, No Iterations 153
time step continuity errors : sum local = 2.14037e-07, global = 4.39024e-10, cumulative = -2.096e-07
DICPCG:  Solving for p, Initial residual = 0.0141709, Final residual = 9.01662e-07, No Iterations 189
time step continuity errors : sum local = 5.25278e-11, global = -4.10298e-13, cumulative = -2.096e-07
DILUPBiCG:  Solving for k, Initial residual = 0.041043, Final residual = 1.29077e-07, No Iterations 2
bounding k, min: 0 max: 13.7363 average: 0.0187812
ExecutionTime = 8.89 s  ClockTime = 9 s

Calculating averages

Time = 0.00013

Courant Number mean: 0.0423157 max: 0.814304
DILUPBiCG:  Solving for Ux, Initial residual = 0.00457884, Final residual = 1.73384e-06, No Iterations 1
DILUPBiCG:  Solving for Uy, Initial residual = 0.000937307, Final residual = 3.77896e-06, No Iterations 1
DICPCG:  Solving for p, Initial residual = 0.0779161, Final residual = 0.00331288, No Iterations 153
time step continuity errors : sum local = 1.88573e-07, global = 1.47562e-09, cumulative = -2.08125e-07
DICPCG:  Solving for p, Initial residual = 0.0112787, Final residual = 8.36509e-07, No Iterations 188
time step continuity errors : sum local = 5.3045e-11, global = 1.9589e-13, cumulative = -2.08125e-07
DILUPBiCG:  Solving for k, Initial residual = 0.0341018, Final residual = 1.02004e-07, No Iterations 2
bounding k, min: 0 max: 16.1238 average: 0.022954
ExecutionTime = 9.58 s  ClockTime = 10 s

Calculating averages

Time = 0.00014

Courant Number mean: 0.0423643 max: 0.793549
DILUPBiCG:  Solving for Ux, Initial residual = 0.00649762, Final residual = 6.88373e-06, No Iterations 1
DILUPBiCG:  Solving for Uy, Initial residual = 0.00117528, Final residual = 7.41392e-06, No Iterations 1
DICPCG:  Solving for p, Initial residual = 0.072258, Final residual = 0.00331994, No Iterations 153
time step continuity errors : sum local = 2.07167e-07, global = -1.61979e-09, cumulative = -2.09744e-07
DICPCG:  Solving for p, Initial residual = 0.0132865, Final residual = 9.43209e-07, No Iterations 188
time step continuity errors : sum local = 5.52289e-11, global = -2.7624e-13, cumulative = -2.09745e-07
DILUPBiCG:  Solving for k, Initial residual = 0.0286241, Final residual = 8.59437e-08, No Iterations 2
bounding k, min: 0 max: 18.0534 average: 0.0272287
ExecutionTime = 10.26 s  ClockTime = 10 s

Calculating averages

Time = 0.00015

Courant Number mean: 0.0423208 max: 0.774384
DILUPBiCG:  Solving for Ux, Initial residual = 0.0064383, Final residual = 3.1257e-06, No Iterations 1
DILUPBiCG:  Solving for Uy, Initial residual = 0.00100309, Final residual = 1.64345e-06, No Iterations 1
DICPCG:  Solving for p, Initial residual = 0.074263, Final residual = 0.00334773, No Iterations 151
time step continuity errors : sum local = 1.926e-07, global = -1.96277e-09, cumulative = -2.11708e-07
DICPCG:  Solving for p, Initial residual = 0.014046, Final residual = 9.86761e-07, No Iterations 189
time step continuity errors : sum local = 3.43633e-11, global = 3.4787e-13, cumulative = -2.11707e-07
DILUPBiCG:  Solving for k, Initial residual = 0.0244788, Final residual = 7.45173e-08, No Iterations 2
bounding k, min: 0 max: 19.412 average: 0.0315197
ExecutionTime = 10.94 s  ClockTime = 11 s

Calculating averages

Time = 0.00016

Courant Number mean: 0.0423016 max: 0.759866
DILUPBiCG:  Solving for Ux, Initial residual = 0.00184159, Final residual = 2.33386e-06, No Iterations 1
DILUPBiCG:  Solving for Uy, Initial residual = 0.00089399, Final residual = 2.08518e-06, No Iterations 1
DICPCG:  Solving for p, Initial residual = 0.117332, Final residual = 0.00558047, No Iterations 151
time step continuity errors : sum local = 1.90753e-07, global = -2.07303e-10, cumulative = -2.11914e-07
DICPCG:  Solving for p, Initial residual = 0.00855505, Final residual = 8.98284e-07, No Iterations 187
time step continuity errors : sum local = 5.4428e-11, global = 6.06736e-13, cumulative = -2.11914e-07
DILUPBiCG:  Solving for k, Initial residual = 0.021433, Final residual = 5.96738e-08, No Iterations 2
bounding k, min: 0 max: 20.2392 average: 0.0357734
ExecutionTime = 11.62 s  ClockTime = 12 s

Calculating averages

Time = 0.00017

Courant Number mean: 0.0423499 max: 0.750914
DILUPBiCG:  Solving for Ux, Initial residual = 0.00683273, Final residual = 3.24096e-06, No Iterations 1
DILUPBiCG:  Solving for Uy, Initial residual = 0.00117864, Final residual = 3.89121e-06, No Iterations 1
DICPCG:  Solving for p, Initial residual = 0.0658513, Final residual = 0.00289742, No Iterations 157
time step continuity errors : sum local = 1.74188e-07, global = 3.27871e-11, cumulative = -2.11881e-07
DICPCG:  Solving for p, Initial residual = 0.0131061, Final residual = 9.44131e-07, No Iterations 189
time step continuity errors : sum local = 6.68623e-11, global = -3.98241e-13, cumulative = -2.11881e-07
DILUPBiCG:  Solving for k, Initial residual = 0.0189274, Final residual = 4.56843e-08, No Iterations 2
bounding k, min: 0 max: 20.5839 average: 0.0399238
ExecutionTime = 12.32 s  ClockTime = 12 s

Calculating averages

Time = 0.00018

Courant Number mean: 0.0422708 max: 0.742586
DILUPBiCG:  Solving for Ux, Initial residual = 0.0102607, Final residual = 8.17677e-06, No Iterations 1
DILUPBiCG:  Solving for Uy, Initial residual = 0.00141044, Final residual = 4.87919e-06, No Iterations 1
DICPCG:  Solving for p, Initial residual = 0.0589161, Final residual = 0.00273713, No Iterations 154
time step continuity errors : sum local = 1.93502e-07, global = -3.18291e-10, cumulative = -2.122e-07
DICPCG:  Solving for p, Initial residual = 0.0171664, Final residual = 8.64915e-07, No Iterations 191
time step continuity errors : sum local = 3.88739e-11, global = 5.11545e-14, cumulative = -2.122e-07
DILUPBiCG:  Solving for k, Initial residual = 0.0170082, Final residual = 8.55743e-06, No Iterations 1
bounding k, min: 0 max: 20.5473 average: 0.0439428
ExecutionTime = 13 s  ClockTime = 13 s

Calculating averages

Time = 0.00019

Courant Number mean: 0.0422682 max: 0.738256
DILUPBiCG:  Solving for Ux, Initial residual = 0.00302591, Final residual = 3.52053e-07, No Iterations 2
DILUPBiCG:  Solving for Uy, Initial residual = 0.00105918, Final residual = 4.43909e-06, No Iterations 1
DICPCG:  Solving for p, Initial residual = 0.0806736, Final residual = 0.00396273, No Iterations 156
time step continuity errors : sum local = 1.76167e-07, global = 2.55363e-10, cumulative = -2.11944e-07
DICPCG:  Solving for p, Initial residual = 0.0106901, Final residual = 8.61237e-07, No Iterations 188
time step continuity errors : sum local = 5.25098e-11, global = -3.34386e-13, cumulative = -2.11945e-07
DILUPBiCG:  Solving for k, Initial residual = 0.0154491, Final residual = 7.23206e-06, No Iterations 1
bounding k, min: 0 max: 20.2442 average: 0.0478053
ExecutionTime = 13.69 s  ClockTime = 14 s

Calculating averages

Time = 0.0002

Courant Number mean: 0.0421928 max: 0.733482
DILUPBiCG:  Solving for Ux, Initial residual = 0.00852885, Final residual = 2.00029e-07, No Iterations 2
DILUPBiCG:  Solving for Uy, Initial residual = 0.0012404, Final residual = 4.41957e-06, No Iterations 1
DICPCG:  Solving for p, Initial residual = 0.0559599, Final residual = 0.00271848, No Iterations 145
time step continuity errors : sum local = 1.64196e-07, global = 3.96465e-09, cumulative = -2.0798e-07
DICPCG:  Solving for p, Initial residual = 0.0100026, Final residual = 9.55126e-07, No Iterations 185
time step continuity errors : sum local = 3.88774e-11, global = 1.97859e-13, cumulative = -2.0798e-07
DILUPBiCG:  Solving for k, Initial residual = 0.0141012, Final residual = 5.55417e-06, No Iterations 1
bounding k, min: 0 max: 19.7942 average: 0.0515013
ExecutionTime = 14.37 s  ClockTime = 15 s

Calculating averages

Time = 0.00021

Courant Number mean: 0.042142 max: 0.727522
DILUPBiCG:  Solving for Ux, Initial residual = 0.00480755, Final residual = 1.87713e-07, No Iterations 2
DILUPBiCG:  Solving for Uy, Initial residual = 0.00122037, Final residual = 2.94901e-06, No Iterations 1
DICPCG:  Solving for p, Initial residual = 0.0870651, Final residual = 0.00395721, No Iterations 159
time step continuity errors : sum local = 1.60793e-07, global = -3.97218e-10, cumulative = -2.08377e-07
DICPCG:  Solving for p, Initial residual = 0.0104027, Final residual = 8.65967e-07, No Iterations 188
time step continuity errors : sum local = 6.12733e-11, global = 2.09995e-13, cumulative = -2.08377e-07
DILUPBiCG:  Solving for k, Initial residual = 0.0130225, Final residual = 5.62361e-06, No Iterations 1
bounding k, min: 0 max: 19.315 average: 0.0550605
ExecutionTime = 15.06 s  ClockTime = 15 s

Calculating averages

Time = 0.00022

Courant Number mean: 0.042208 max: 0.721809
DILUPBiCG:  Solving for Ux, Initial residual = 0.00949133, Final residual = 2.87104e-07, No Iterations 2
DILUPBiCG:  Solving for Uy, Initial residual = 0.00142623, Final residual = 4.23677e-06, No Iterations 1
DICPCG:  Solving for p, Initial residual = 0.046251, Final residual = 0.00215885, No Iterations 155
time step continuity errors : sum local = 1.52093e-07, global = 3.46959e-10, cumulative = -2.0803e-07
DICPCG:  Solving for p, Initial residual = 0.0162076, Final residual = 9.42122e-07, No Iterations 190
time step continuity errors : sum local = 3.28072e-11, global = -1.14548e-13, cumulative = -2.0803e-07
DILUPBiCG:  Solving for k, Initial residual = 0.01206, Final residual = 5.16825e-06, No Iterations 1
bounding k, min: 0 max: 18.8823 average: 0.0584881
ExecutionTime = 15.76 s  ClockTime = 16 s

Calculating averages

Time = 0.00023

Courant Number mean: 0.0422359 max: 0.711647
DILUPBiCG:  Solving for Ux, Initial residual = 0.00256385, Final residual = 1.86568e-07, No Iterations 2
DILUPBiCG:  Solving for Uy, Initial residual = 0.00116457, Final residual = 5.15675e-06, No Iterations 1
DICPCG:  Solving for p, Initial residual = 0.110132, Final residual = 0.00521543, No Iterations 152
time step continuity errors : sum local = 1.78329e-07, global = 2.75427e-10, cumulative = -2.07755e-07
DICPCG:  Solving for p, Initial residual = 0.00827128, Final residual = 8.10983e-07, No Iterations 187
time step continuity errors : sum local = 5.15804e-11, global = 2.70132e-13, cumulative = -2.07754e-07
DILUPBiCG:  Solving for k, Initial residual = 0.0112146, Final residual = 4.31585e-06, No Iterations 1
bounding k, min: 0 max: 18.5453 average: 0.0617998
ExecutionTime = 16.44 s  ClockTime = 17 s

Calculating averages

Time = 0.00024

Courant Number mean: 0.0423172 max: 0.698919
DILUPBiCG:  Solving for Ux, Initial residual = 0.00890507, Final residual = 7.04411e-06, No Iterations 1
DILUPBiCG:  Solving for Uy, Initial residual = 0.00145116, Final residual = 1.50356e-07, No Iterations 2
DICPCG:  Solving for p, Initial residual = 0.0512265, Final residual = 0.00216184, No Iterations 161
time step continuity errors : sum local = 1.36732e-07, global = 9.03667e-10, cumulative = -2.06851e-07
DICPCG:  Solving for p, Initial residual = 0.0141157, Final residual = 9.93644e-07, No Iterations 189
time step continuity errors : sum local = 8.66267e-11, global = -4.93278e-13, cumulative = -2.06851e-07
DILUPBiCG:  Solving for k, Initial residual = 0.0103789, Final residual = 3.28114e-06, No Iterations 1
bounding k, min: 0 max: 18.3002 average: 0.0649561
ExecutionTime = 17.14 s  ClockTime = 17 s

Calculating averages

Time = 0.00025

Courant Number mean: 0.042207 max: 0.67875
DILUPBiCG:  Solving for Ux, Initial residual = 0.0147127, Final residual = 9.09758e-06, No Iterations 1
DILUPBiCG:  Solving for Uy, Initial residual = 0.00141144, Final residual = 8.19525e-06, No Iterations 1
DICPCG:  Solving for p, Initial residual = 0.045422, Final residual = 0.00225068, No Iterations 156
time step continuity errors : sum local = 1.96552e-07, global = 5.24141e-10, cumulative = -2.06327e-07
DICPCG:  Solving for p, Initial residual = 0.0284719, Final residual = 8.95061e-07, No Iterations 194
time step continuity errors : sum local = 2.84722e-11, global = -9.09254e-14, cumulative = -2.06327e-07
DILUPBiCG:  Solving for k, Initial residual = 0.0096485, Final residual = 2.74602e-06, No Iterations 1
bounding k, min: 0 max: 18.1381 average: 0.067961
ExecutionTime = 17.83 s  ClockTime = 18 s

Calculating averages

Time = 0.00026

Courant Number mean: 0.0421734 max: 0.667502
DILUPBiCG:  Solving for Ux, Initial residual = 0.00183068, Final residual = 5.62682e-06, No Iterations 1
DILUPBiCG:  Solving for Uy, Initial residual = 0.00104939, Final residual = 1.88036e-06, No Iterations 2
DICPCG:  Solving for p, Initial residual = 0.133489, Final residual = 0.00640599, No Iterations 151
time step continuity errors : sum local = 2.00564e-07, global = 3.1448e-10, cumulative = -2.06013e-07
DICPCG:  Solving for p, Initial residual = 0.00975775, Final residual = 8.9929e-07, No Iterations 188
time step continuity errors : sum local = 4.71259e-11, global = 5.16336e-13, cumulative = -2.06012e-07
DILUPBiCG:  Solving for k, Initial residual = 0.00902438, Final residual = 2.58353e-06, No Iterations 1
bounding k, min: 0 max: 18.1289 average: 0.0708376
ExecutionTime = 18.51 s  ClockTime = 19 s

Calculating averages

Time = 0.00027

Courant Number mean: 0.0422095 max: 0.661567
DILUPBiCG:  Solving for Ux, Initial residual = 0.00598655, Final residual = 5.34649e-06, No Iterations 1
DILUPBiCG:  Solving for Uy, Initial residual = 0.00139888, Final residual = 1.26302e-06, No Iterations 2
DICPCG:  Solving for p, Initial residual = 0.074851, Final residual = 0.00338253, No Iterations 157
time step continuity errors : sum local = 1.74628e-07, global = -4.12454e-10, cumulative = -2.06425e-07
DICPCG:  Solving for p, Initial residual = 0.014638, Final residual = 9.45965e-07, No Iterations 184
time step continuity errors : sum local = 5.3838e-11, global = -7.81912e-13, cumulative = -2.06425e-07
DILUPBiCG:  Solving for k, Initial residual = 0.00844332, Final residual = 2.11503e-06, No Iterations 1
bounding k, min: 0 max: 18.5012 average: 0.0735683
ExecutionTime = 19.2 s  ClockTime = 19 s

Calculating averages

Time = 0.00028

Courant Number mean: 0.0421466 max: 0.651757
DILUPBiCG:  Solving for Ux, Initial residual = 0.00832547, Final residual = 8.63306e-06, No Iterations 1
DILUPBiCG:  Solving for Uy, Initial residual = 0.00107634, Final residual = 4.33718e-06, No Iterations 1
DICPCG:  Solving for p, Initial residual = 0.0519177, Final residual = 0.00221956, No Iterations 159
time step continuity errors : sum local = 1.26095e-07, global = -1.24951e-10, cumulative = -2.0655e-07
DICPCG:  Solving for p, Initial residual = 0.0140724, Final residual = 9.80751e-07, No Iterations 190
time step continuity errors : sum local = 6.63071e-11, global = 3.83232e-13, cumulative = -2.0655e-07
DILUPBiCG:  Solving for k, Initial residual = 0.00797219, Final residual = 1.87799e-06, No Iterations 1
bounding k, min: 0 max: 18.8406 average: 0.07618
ExecutionTime = 19.89 s  ClockTime = 20 s

Calculating averages

Time = 0.00029

Courant Number mean: 0.0422143 max: 0.642322
DILUPBiCG:  Solving for Ux, Initial residual = 0.0095481, Final residual = 4.20059e-06, No Iterations 1
DILUPBiCG:  Solving for Uy, Initial residual = 0.00166057, Final residual = 8.3606e-07, No Iterations 2
DICPCG:  Solving for p, Initial residual = 0.0451426, Final residual = 0.0020996, No Iterations 152
time step continuity errors : sum local = 1.41154e-07, global = 1.22459e-09, cumulative = -2.05325e-07
DICPCG:  Solving for p, Initial residual = 0.0097054, Final residual = 8.51067e-07, No Iterations 188
time step continuity errors : sum local = 3.83348e-11, global = -3.74141e-13, cumulative = -2.05326e-07
DILUPBiCG:  Solving for k, Initial residual = 0.00758975, Final residual = 1.63587e-06, No Iterations 1
bounding k, min: 0 max: 19.1546 average: 0.0786829
ExecutionTime = 20.58 s  ClockTime = 21 s

Calculating averages

Time = 0.0003

Courant Number mean: 0.0422744 max: 0.632528
DILUPBiCG:  Solving for Ux, Initial residual = 0.00563991, Final residual = 8.26124e-06, No Iterations 1
DILUPBiCG:  Solving for Uy, Initial residual = 0.00125923, Final residual = 2.39015e-06, No Iterations 1
DICPCG:  Solving for p, Initial residual = 0.074312, Final residual = 0.00312682, No Iterations 6
time step continuity errors : sum local = 1.39701e-07, global = -3.41951e-08, cumulative = -2.39521e-07
DICPCG:  Solving for p, Initial residual = 0.00502385, Final residual = 8.54632e-07, No Iterations 192
time step continuity errors : sum local = 3.8026e-11, global = 7.13273e-14, cumulative = -2.39521e-07
DILUPBiCG:  Solving for k, Initial residual = 0.00727534, Final residual = 1.51789e-06, No Iterations 1
bounding k, min: 0 max: 19.4487 average: 0.081085
ExecutionTime = 21.13 s  ClockTime = 21 s

Calculating averages

Time = 0.00031

Courant Number mean: 0.0423396 max: 0.623998
DILUPBiCG:  Solving for Ux, Initial residual = 0.00644736, Final residual = 6.59842e-06, No Iterations 1
DILUPBiCG:  Solving for Uy, Initial residual = 0.00135841, Final residual = 2.45459e-06, No Iterations 1
DICPCG:  Solving for p, Initial residual = 0.0713218, Final residual = 0.00355536, No Iterations 154
time step continuity errors : sum local = 1.70839e-07, global = 8.64683e-10, cumulative = -2.38656e-07
DICPCG:  Solving for p, Initial residual = 0.0170372, Final residual = 9.85063e-07, No Iterations 191
time step continuity errors : sum local = 3.47608e-11, global = -1.34964e-13, cumulative = -2.38656e-07
DILUPBiCG:  Solving for k, Initial residual = 0.00699586, Final residual = 1.54253e-06, No Iterations 1
bounding k, min: 0 max: 19.7164 average: 0.0833773
ExecutionTime = 21.82 s  ClockTime = 22 s

Calculating averages

Time = 0.00032

Courant Number mean: 0.042335 max: 0.616321
DILUPBiCG:  Solving for Ux, Initial residual = 0.00355723, Final residual = 3.85378e-07, No Iterations 2
DILUPBiCG:  Solving for Uy, Initial residual = 0.00121693, Final residual = 8.53381e-06, No Iterations 2
DICPCG:  Solving for p, Initial residual = 0.100129, Final residual = 0.00440758, No Iterations 151
time step continuity errors : sum local = 1.53514e-07, global = 6.67522e-10, cumulative = -2.37989e-07
DICPCG:  Solving for p, Initial residual = 0.0126671, Final residual = 8.95913e-07, No Iterations 140
time step continuity errors : sum local = 2.36232e-11, global = -1.31823e-12, cumulative = -2.3799e-07
DILUPBiCG:  Solving for k, Initial residual = 0.00671395, Final residual = 1.73745e-06, No Iterations 1
bounding k, min: 0 max: 19.9586 average: 0.0855608
ExecutionTime = 22.46 s  ClockTime = 23 s

Calculating averages

Time = 0.00033

Courant Number mean: 0.0423196 max: 0.611881
DILUPBiCG:  Solving for Ux, Initial residual = 0.00231026, Final residual = 6.49274e-07, No Iterations 2
DILUPBiCG:  Solving for Uy, Initial residual = 0.00126386, Final residual = 3.14757e-06, No Iterations 1
DICPCG:  Solving for p, Initial residual = 0.105958, Final residual = 0.00444097, No Iterations 145
time step continuity errors : sum local = 1.15242e-07, global = 2.27151e-09, cumulative = -2.35718e-07
DICPCG:  Solving for p, Initial residual = 0.00916702, Final residual = 9.38056e-07, No Iterations 187
time step continuity errors : sum local = 2.80482e-11, global = 2.13796e-13, cumulative = -2.35718e-07
DILUPBiCG:  Solving for k, Initial residual = 0.00643569, Final residual = 2.03835e-06, No Iterations 1
bounding k, min: 0 max: 20.1783 average: 0.0876434
ExecutionTime = 23.14 s  ClockTime = 23 s

Calculating averages

Time = 0.00034

Courant Number mean: 0.0423232 max: 0.611115
DILUPBiCG:  Solving for Ux, Initial residual = 0.00219074, Final residual = 8.40418e-06, No Iterations 2
DILUPBiCG:  Solving for Uy, Initial residual = 0.00122495, Final residual = 2.01335e-06, No Iterations 1
DICPCG:  Solving for p, Initial residual = 0.103746, Final residual = 0.00516568, No Iterations 152
time step continuity errors : sum local = 1.54833e-07, global = -1.20811e-10, cumulative = -2.35839e-07
DICPCG:  Solving for p, Initial residual = 0.0108913, Final residual = 8.39629e-07, No Iterations 188
time step continuity errors : sum local = 3.591e-11, global = -3.32244e-13, cumulative = -2.35839e-07
DILUPBiCG:  Solving for k, Initial residual = 0.00616358, Final residual = 2.20202e-06, No Iterations 1
bounding k, min: 0 max: 20.3683 average: 0.0896179
ExecutionTime = 23.82 s  ClockTime = 24 s

Calculating averages

Time = 0.00035

Courant Number mean: 0.0422746 max: 0.612883
DILUPBiCG:  Solving for Ux, Initial residual = 0.00592664, Final residual = 6.43816e-06, No Iterations 1
DILUPBiCG:  Solving for Uy, Initial residual = 0.00108127, Final residual = 1.72902e-06, No Iterations 1
DICPCG:  Solving for p, Initial residual = 0.0673251, Final residual = 0.00301142, No Iterations 145
time step continuity errors : sum local = 1.29378e-07, global = 3.10767e-09, cumulative = -2.32732e-07
DICPCG:  Solving for p, Initial residual = 0.00917244, Final residual = 9.85507e-07, No Iterations 185
time step continuity errors : sum local = 3.20607e-11, global = -8.20574e-14, cumulative = -2.32732e-07
DILUPBiCG:  Solving for k, Initial residual = 0.00589098, Final residual = 2.00177e-06, No Iterations 1
bounding k, min: 0 max: 20.4817 average: 0.0914834
ExecutionTime = 24.5 s  ClockTime = 25 s

Calculating averages

Time = 0.00036

Courant Number mean: 0.0422335 max: 0.617632
DILUPBiCG:  Solving for Ux, Initial residual = 0.00391191, Final residual = 8.36622e-06, No Iterations 1
DILUPBiCG:  Solving for Uy, Initial residual = 0.00101869, Final residual = 2.11958e-06, No Iterations 1
DICPCG:  Solving for p, Initial residual = 0.102131, Final residual = 0.00469813, No Iterations 146
time step continuity errors : sum local = 1.51524e-07, global = 5.16357e-10, cumulative = -2.32215e-07
DICPCG:  Solving for p, Initial residual = 0.0121448, Final residual = 8.60176e-07, No Iterations 188
time step continuity errors : sum local = 2.08203e-11, global = 4.23041e-14, cumulative = -2.32215e-07
DILUPBiCG:  Solving for k, Initial residual = 0.0056205, Final residual = 1.55851e-06, No Iterations 1
bounding k, min: 0 max: 20.5164 average: 0.0932497
ExecutionTime = 25.17 s  ClockTime = 25 s

Calculating averages

Time = 0.00037

Courant Number mean: 0.0422111 max: 0.624935
DILUPBiCG:  Solving for Ux, Initial residual = 0.00213958, Final residual = 2.80846e-06, No Iterations 1
DILUPBiCG:  Solving for Uy, Initial residual = 0.00121818, Final residual = 2.8291e-06, No Iterations 1
DICPCG:  Solving for p, Initial residual = 0.130401, Final residual = 0.00562111, No Iterations 153
time step continuity errors : sum local = 1.34623e-07, global = -4.48094e-10, cumulative = -2.32663e-07
DICPCG:  Solving for p, Initial residual = 0.00925649, Final residual = 9.45611e-07, No Iterations 187
time step continuity errors : sum local = 4.20888e-11, global = 4.57608e-13, cumulative = -2.32663e-07
DILUPBiCG:  Solving for k, Initial residual = 0.00535853, Final residual = 1.28288e-06, No Iterations 1
bounding k, min: 0 max: 20.5507 average: 0.0949348
ExecutionTime = 25.86 s  ClockTime = 26 s

Calculating averages

Time = 0.00038

Courant Number mean: 0.0422435 max: 0.634276
DILUPBiCG:  Solving for Ux, Initial residual = 0.00529829, Final residual = 7.92102e-06, No Iterations 1
DILUPBiCG:  Solving for Uy, Initial residual = 0.00154049, Final residual = 5.06635e-06, No Iterations 1
DICPCG:  Solving for p, Initial residual = 0.0698529, Final residual = 0.00247102, No Iterations 145
time step continuity errors : sum local = 1.10349e-07, global = 1.34996e-09, cumulative = -2.31313e-07
DICPCG:  Solving for p, Initial residual = 0.00538923, Final residual = 8.65553e-07, No Iterations 179
time step continuity errors : sum local = 4.85853e-11, global = -1.73523e-13, cumulative = -2.31313e-07
DILUPBiCG:  Solving for k, Initial residual = 0.00513065, Final residual = 1.53693e-06, No Iterations 1
bounding k, min: 0 max: 20.4799 average: 0.0965545
ExecutionTime = 26.52 s  ClockTime = 27 s

Calculating averages

Time = 0.00039

Courant Number mean: 0.042324 max: 0.644065
DILUPBiCG:  Solving for Ux, Initial residual = 0.00828343, Final residual = 4.47227e-06, No Iterations 1
DILUPBiCG:  Solving for Uy, Initial residual = 0.00183057, Final residual = 3.07229e-07, No Iterations 2
DICPCG:  Solving for p, Initial residual = 0.0542785, Final residual = 0.00231844, No Iterations 160
time step continuity errors : sum local = 1.29962e-07, global = -7.75557e-10, cumulative = -2.32089e-07
DICPCG:  Solving for p, Initial residual = 0.0155185, Final residual = 8.94211e-07, No Iterations 191
time step continuity errors : sum local = 5.4488e-11, global = -3.25173e-13, cumulative = -2.32089e-07
DILUPBiCG:  Solving for k, Initial residual = 0.00492942, Final residual = 1.84763e-06, No Iterations 1
bounding k, min: 0 max: 20.311 average: 0.0980839
ExecutionTime = 27.22 s  ClockTime = 27 s

Calculating averages

Time = 0.0004

Courant Number mean: 0.0422597 max: 0.650656
DILUPBiCG:  Solving for Ux, Initial residual = 0.0095286, Final residual = 4.43339e-06, No Iterations 1
DILUPBiCG:  Solving for Uy, Initial residual = 0.00134613, Final residual = 2.44686e-06, No Iterations 1
DICPCG:  Solving for p, Initial residual = 0.0582066, Final residual = 0.00275067, No Iterations 157
time step continuity errors : sum local = 1.69035e-07, global = -5.642e-10, cumulative = -2.32653e-07
DICPCG:  Solving for p, Initial residual = 0.0158559, Final residual = 9.289e-07, No Iterations 191
time step continuity errors : sum local = 6.35218e-11, global = 2.96919e-13, cumulative = -2.32653e-07
DILUPBiCG:  Solving for k, Initial residual = 0.00473927, Final residual = 2.10344e-06, No Iterations 1
bounding k, min: 0 max: 20.1678 average: 0.0995493
ExecutionTime = 27.9 s  ClockTime = 28 s

Calculating averages

Time = 0.00041

Courant Number mean: 0.0423308 max: 0.657231
DILUPBiCG:  Solving for Ux, Initial residual = 0.00992036, Final residual = 5.17688e-06, No Iterations 1
DILUPBiCG:  Solving for Uy, Initial residual = 0.00168249, Final residual = 7.83535e-06, No Iterations 1
DICPCG:  Solving for p, Initial residual = 0.0483055, Final residual = 0.00220946, No Iterations 154
time step continuity errors : sum local = 1.50934e-07, global = -1.04635e-09, cumulative = -2.33699e-07
DICPCG:  Solving for p, Initial residual = 0.0269463, Final residual = 8.90947e-07, No Iterations 193
time step continuity errors : sum local = 2.15796e-11, global = 7.87532e-14, cumulative = -2.33699e-07
DILUPBiCG:  Solving for k, Initial residual = 0.00456118, Final residual = 2.16599e-06, No Iterations 1
bounding k, min: 0 max: 19.9979 average: 0.100952
ExecutionTime = 28.59 s  ClockTime = 29 s

Calculating averages

Time = 0.00042

Courant Number mean: 0.0423501 max: 0.660411
DILUPBiCG:  Solving for Ux, Initial residual = 0.00148412, Final residual = 2.84457e-06, No Iterations 1
DILUPBiCG:  Solving for Uy, Initial residual = 0.00122607, Final residual = 3.85352e-06, No Iterations 1
DICPCG:  Solving for p, Initial residual = 0.139284, Final residual = 0.00619852, No Iterations 154
time step continuity errors : sum local = 1.46541e-07, global = -7.51419e-10, cumulative = -2.34451e-07
DICPCG:  Solving for p, Initial residual = 0.00969616, Final residual = 9.34088e-07, No Iterations 187
time step continuity errors : sum local = 5.42113e-11, global = -2.13759e-13, cumulative = -2.34451e-07
DILUPBiCG:  Solving for k, Initial residual = 0.00438761, Final residual = 2.03465e-06, No Iterations 1
bounding k, min: 0 max: 19.7949 average: 0.10227
ExecutionTime = 29.28 s  ClockTime = 29 s

Calculating averages

Time = 0.00043

Courant Number mean: 0.0422746 max: 0.659213
DILUPBiCG:  Solving for Ux, Initial residual = 0.00928296, Final residual = 3.0278e-06, No Iterations 1
DILUPBiCG:  Solving for Uy, Initial residual = 0.00129097, Final residual = 3.20258e-06, No Iterations 1
DICPCG:  Solving for p, Initial residual = 0.05789, Final residual = 0.00257693, No Iterations 159
time step continuity errors : sum local = 1.49723e-07, global = -6.26972e-10, cumulative = -2.35078e-07
DICPCG:  Solving for p, Initial residual = 0.0163296, Final residual = 9.26667e-07, No Iterations 190
time step continuity errors : sum local = 5.24239e-11, global = 1.56088e-13, cumulative = -2.35078e-07
DILUPBiCG:  Solving for k, Initial residual = 0.00422226, Final residual = 2.12988e-06, No Iterations 1
bounding k, min: 0 max: 19.5738 average: 0.103528
ExecutionTime = 29.97 s  ClockTime = 30 s

Calculating averages

Time = 0.00044

Courant Number mean: 0.0423159 max: 0.657101
DILUPBiCG:  Solving for Ux, Initial residual = 0.007287, Final residual = 8.84266e-06, No Iterations 1
DILUPBiCG:  Solving for Uy, Initial residual = 0.00159528, Final residual = 5.81022e-06, No Iterations 1
DICPCG:  Solving for p, Initial residual = 0.060031, Final residual = 0.00282887, No Iterations 155
time step continuity errors : sum local = 1.59818e-07, global = 2.781e-11, cumulative = -2.3505e-07
DICPCG:  Solving for p, Initial residual = 0.0194185, Final residual = 9.58843e-07, No Iterations 192
time step continuity errors : sum local = 2.54468e-11, global = -9.9088e-15, cumulative = -2.3505e-07
DILUPBiCG:  Solving for k, Initial residual = 0.00407431, Final residual = 1.67896e-06, No Iterations 1
bounding k, min: 0 max: 19.3428 average: 0.104726
ExecutionTime = 30.66 s  ClockTime = 31 s

Calculating averages

Time = 0.00045

Courant Number mean: 0.0423319 max: 0.651962
DILUPBiCG:  Solving for Ux, Initial residual = 0.0019083, Final residual = 6.94739e-06, No Iterations 1
DILUPBiCG:  Solving for Uy, Initial residual = 0.00129854, Final residual = 3.97272e-06, No Iterations 1
DICPCG:  Solving for p, Initial residual = 0.131338, Final residual = 0.00594123, No Iterations 157
time step continuity errors : sum local = 1.55672e-07, global = 2.12314e-10, cumulative = -2.34838e-07
DICPCG:  Solving for p, Initial residual = 0.0097099, Final residual = 9.52556e-07, No Iterations 187
time step continuity errors : sum local = 8.21772e-11, global = 6.11561e-13, cumulative = -2.34837e-07
DILUPBiCG:  Solving for k, Initial residual = 0.00394078, Final residual = 1.21273e-06, No Iterations 1
bounding k, min: 0 max: 19.1162 average: 0.105893
ExecutionTime = 31.34 s  ClockTime = 32 s

Calculating averages

Time = 0.00046

Courant Number mean: 0.0424713 max: 0.651191
DILUPBiCG:  Solving for Ux, Initial residual = 0.0147746, Final residual = 5.014e-06, No Iterations 1
DILUPBiCG:  Solving for Uy, Initial residual = 0.00199009, Final residual = 9.6128e-06, No Iterations 1
DICPCG:  Solving for p, Initial residual = 0.0412488, Final residual = 0.00189119, No Iterations 163
time step continuity errors : sum local = 1.64251e-07, global = 6.67373e-10, cumulative = -2.3417e-07
DICPCG:  Solving for p, Initial residual = 0.0163101, Final residual = 8.47384e-07, No Iterations 191
time step continuity errors : sum local = 9.87644e-11, global = -5.14053e-13, cumulative = -2.3417e-07
DILUPBiCG:  Solving for k, Initial residual = 0.00379794, Final residual = 1.25408e-06, No Iterations 1
bounding k, min: 0 max: 18.8671 average: 0.106978
ExecutionTime = 32.04 s  ClockTime = 32 s

Calculating averages

Time = 0.00047

Courant Number mean: 0.042309 max: 0.65199
DILUPBiCG:  Solving for Ux, Initial residual = 0.0215595, Final residual = 5.00872e-06, No Iterations 1
DILUPBiCG:  Solving for Uy, Initial residual = 0.00244274, Final residual = 2.73718e-06, No Iterations 1
DICPCG:  Solving for p, Initial residual = 0.0307424, Final residual = 0.0015264, No Iterations 159
time step continuity errors : sum local = 1.77687e-07, global = -2.81525e-10, cumulative = -2.34452e-07
DICPCG:  Solving for p, Initial residual = 0.0414742, Final residual = 9.19207e-07, No Iterations 196
time step continuity errors : sum local = 2.80082e-11, global = 2.72441e-14, cumulative = -2.34452e-07
DILUPBiCG:  Solving for k, Initial residual = 0.00367395, Final residual = 2.23059e-06, No Iterations 1
bounding k, min: 0 max: 18.5988 average: 0.107991
ExecutionTime = 32.74 s  ClockTime = 33 s

Calculating averages

Time = 0.00048

Courant Number mean: 0.0422663 max: 0.651331
DILUPBiCG:  Solving for Ux, Initial residual = 0.00165962, Final residual = 1.7296e-06, No Iterations 1
DILUPBiCG:  Solving for Uy, Initial residual = 0.00132354, Final residual = 3.35681e-06, No Iterations 1
DICPCG:  Solving for p, Initial residual = 0.105, Final residual = 0.00515476, No Iterations 154
time step continuity errors : sum local = 1.54206e-07, global = -8.7085e-10, cumulative = -2.35322e-07
DICPCG:  Solving for p, Initial residual = 0.00807002, Final residual = 8.29892e-07, No Iterations 188
time step continuity errors : sum local = 4.77617e-11, global = 4.10309e-13, cumulative = -2.35322e-07
DILUPBiCG:  Solving for k, Initial residual = 0.00360194, Final residual = 3.49776e-06, No Iterations 1
bounding k, min: 0 max: 18.3222 average: 0.108962
ExecutionTime = 33.42 s  ClockTime = 34 s

Calculating averages

Time = 0.00049

Courant Number mean: 0.0423227 max: 0.649638
DILUPBiCG:  Solving for Ux, Initial residual = 0.00767026, Final residual = 3.32673e-06, No Iterations 1
DILUPBiCG:  Solving for Uy, Initial residual = 0.00161294, Final residual = 4.55478e-06, No Iterations 1
DICPCG:  Solving for p, Initial residual = 0.0568715, Final residual = 0.00276712, No Iterations 153
time step continuity errors : sum local = 1.59662e-07, global = -1.1414e-09, cumulative = -2.36463e-07
DICPCG:  Solving for p, Initial residual = 0.0216318, Final residual = 9.49048e-07, No Iterations 191
time step continuity errors : sum local = 2.3761e-11, global = -6.97568e-14, cumulative = -2.36464e-07
DILUPBiCG:  Solving for k, Initial residual = 0.00352075, Final residual = 3.96714e-06, No Iterations 1
bounding k, min: 0 max: 18.0355 average: 0.109889
ExecutionTime = 34.11 s  ClockTime = 34 s

Calculating averages

Time = 0.0005

Courant Number mean: 0.0423331 max: 0.645917
DILUPBiCG:  Solving for Ux, Initial residual = 0.00158689, Final residual = 2.61944e-06, No Iterations 1
DILUPBiCG:  Solving for Uy, Initial residual = 0.00134657, Final residual = 2.47455e-06, No Iterations 1
DICPCG:  Solving for p, Initial residual = 0.118712, Final residual = 0.00556034, No Iterations 152
time step continuity errors : sum local = 1.36604e-07, global = -8.02506e-10, cumulative = -2.37266e-07
DICPCG:  Solving for p, Initial residual = 0.00892617, Final residual = 8.2284e-07, No Iterations 188
time step continuity errors : sum local = 4.20545e-11, global = 4.17997e-13, cumulative = -2.37266e-07
DILUPBiCG:  Solving for k, Initial residual = 0.0034393, Final residual = 4.24845e-06, No Iterations 1
bounding k, min: 0 max: 17.7419 average: 0.110782
ExecutionTime = 34.79 s  ClockTime = 35 s

Calculating averages

Time = 0.00051

Courant Number mean: 0.0423944 max: 0.642161
DILUPBiCG:  Solving for Ux, Initial residual = 0.00679006, Final residual = 5.05561e-06, No Iterations 1
DILUPBiCG:  Solving for Uy, Initial residual = 0.00162213, Final residual = 3.68638e-06, No Iterations 1
DICPCG:  Solving for p, Initial residual = 0.0553706, Final residual = 0.00227166, No Iterations 158
time step continuity errors : sum local = 1.16969e-07, global = 9.43328e-11, cumulative = -2.37171e-07
DICPCG:  Solving for p, Initial residual = 0.0151005, Final residual = 9.09688e-07, No Iterations 190
time step continuity errors : sum local = 4.12955e-11, global = -1.51017e-13, cumulative = -2.37171e-07
DILUPBiCG:  Solving for k, Initial residual = 0.00335254, Final residual = 3.22047e-06, No Iterations 1
bounding k, min: 0 max: 17.435 average: 0.111629
ExecutionTime = 35.48 s  ClockTime = 36 s

Calculating averages

Time = 0.00052

Courant Number mean: 0.0423659 max: 0.637484
DILUPBiCG:  Solving for Ux, Initial residual = 0.00585787, Final residual = 7.10003e-07, No Iterations 2
DILUPBiCG:  Solving for Uy, Initial residual = 0.00141959, Final residual = 2.85583e-06, No Iterations 1
DICPCG:  Solving for p, Initial residual = 0.0684648, Final residual = 0.00331591, No Iterations 143
time step continuity errors : sum local = 1.50537e-07, global = -2.46656e-09, cumulative = -2.39638e-07
DICPCG:  Solving for p, Initial residual = 0.00531205, Final residual = 9.45035e-07, No Iterations 183
time step continuity errors : sum local = 4.79714e-11, global = 3.07439e-14, cumulative = -2.39638e-07
DILUPBiCG:  Solving for k, Initial residual = 0.00326834, Final residual = 2.23123e-06, No Iterations 1
bounding k, min: 0 max: 17.1123 average: 0.112419
ExecutionTime = 36.15 s  ClockTime = 36 s

Calculating averages

Time = 0.00053

Courant Number mean: 0.042294 max: 0.633125
DILUPBiCG:  Solving for Ux, Initial residual = 0.00777471, Final residual = 8.67675e-06, No Iterations 1
DILUPBiCG:  Solving for Uy, Initial residual = 0.00124104, Final residual = 2.56052e-06, No Iterations 1
DICPCG:  Solving for p, Initial residual = 0.0628489, Final residual = 0.00308831, No Iterations 161
time step continuity errors : sum local = 1.57739e-07, global = -7.20605e-10, cumulative = -2.40359e-07
DICPCG:  Solving for p, Initial residual = 0.0126105, Final residual = 9.47375e-07, No Iterations 188
time step continuity errors : sum local = 1.09437e-10, global = 6.63455e-13, cumulative = -2.40358e-07
DILUPBiCG:  Solving for k, Initial residual = 0.00318836, Final residual = 1.57904e-06, No Iterations 1
bounding k, min: 0 max: 16.7958 average: 0.113201
ExecutionTime = 36.85 s  ClockTime = 37 s

Calculating averages

Time = 0.00054

Courant Number mean: 0.0424637 max: 0.632998
DILUPBiCG:  Solving for Ux, Initial residual = 0.0200747, Final residual = 2.86315e-06, No Iterations 1
DILUPBiCG:  Solving for Uy, Initial residual = 0.00255457, Final residual = 1.99684e-07, No Iterations 2
DICPCG:  Solving for p, Initial residual = 0.0269554, Final residual = 0.00124192, No Iterations 161
time step continuity errors : sum local = 1.4343e-07, global = 4.79325e-10, cumulative = -2.39879e-07
DICPCG:  Solving for p, Initial residual = 0.0404847, Final residual = 8.19851e-07, No Iterations 196
time step continuity errors : sum local = 2.43322e-11, global = 5.12456e-15, cumulative = -2.39879e-07
DILUPBiCG:  Solving for k, Initial residual = 0.00310268, Final residual = 1.33468e-06, No Iterations 1
bounding k, min: 0 max: 16.4771 average: 0.113963
ExecutionTime = 37.55 s  ClockTime = 38 s

Calculating averages

Time = 0.00055

Courant Number mean: 0.0425042 max: 0.632379
DILUPBiCG:  Solving for Ux, Initial residual = 0.00153326, Final residual = 1.62332e-06, No Iterations 1
DILUPBiCG:  Solving for Uy, Initial residual = 0.00131267, Final residual = 2.70987e-06, No Iterations 1
DICPCG:  Solving for p, Initial residual = 0.0983899, Final residual = 0.00480793, No Iterations 150
time step continuity errors : sum local = 1.40356e-07, global = -4.09942e-10, cumulative = -2.40289e-07
DICPCG:  Solving for p, Initial residual = 0.00761672, Final residual = 9.18227e-07, No Iterations 187
time step continuity errors : sum local = 4.17207e-11, global = -4.23515e-13, cumulative = -2.40289e-07
DILUPBiCG:  Solving for k, Initial residual = 0.00304595, Final residual = 1.40467e-06, No Iterations 1
bounding k, min: 0 max: 16.5074 average: 0.114689
ExecutionTime = 38.23 s  ClockTime = 38 s

Calculating averages

Time = 0.00056

Courant Number mean: 0.042468 max: 0.63154
DILUPBiCG:  Solving for Ux, Initial residual = 0.00581605, Final residual = 4.43257e-06, No Iterations 1
DILUPBiCG:  Solving for Uy, Initial residual = 0.00129209, Final residual = 2.5211e-06, No Iterations 1
DICPCG:  Solving for p, Initial residual = 0.0588516, Final residual = 0.00272299, No Iterations 158
time step continuity errors : sum local = 1.24077e-07, global = -4.78513e-10, cumulative = -2.40767e-07
DICPCG:  Solving for p, Initial residual = 0.0124296, Final residual = 9.42174e-07, No Iterations 189
time step continuity errors : sum local = 5.95664e-11, global = 3.25607e-13, cumulative = -2.40767e-07
DILUPBiCG:  Solving for k, Initial residual = 0.00299472, Final residual = 1.54476e-06, No Iterations 1
bounding k, min: 0 max: 16.7679 average: 0.115396
ExecutionTime = 38.92 s  ClockTime = 39 s

Calculating averages

Time = 0.00057

Courant Number mean: 0.0425384 max: 0.632144
DILUPBiCG:  Solving for Ux, Initial residual = 0.0085857, Final residual = 7.09551e-06, No Iterations 1
DILUPBiCG:  Solving for Uy, Initial residual = 0.00183641, Final residual = 6.10627e-06, No Iterations 1
DICPCG:  Solving for p, Initial residual = 0.0514709, Final residual = 0.00218839, No Iterations 161
time step continuity errors : sum local = 1.39315e-07, global = 3.94336e-10, cumulative = -2.40373e-07
DICPCG:  Solving for p, Initial residual = 0.0141996, Final residual = 8.96959e-07, No Iterations 190
time step continuity errors : sum local = 8.5463e-11, global = -4.01086e-13, cumulative = -2.40373e-07
DILUPBiCG:  Solving for k, Initial residual = 0.00296686, Final residual = 1.90715e-06, No Iterations 1
bounding k, min: 0 max: 17.1093 average: 0.116054
ExecutionTime = 39.62 s  ClockTime = 40 s

Calculating averages

Time = 0.00058

Courant Number mean: 0.0424045 max: 0.629779
DILUPBiCG:  Solving for Ux, Initial residual = 0.01667, Final residual = 4.23007e-06, No Iterations 1
DILUPBiCG:  Solving for Uy, Initial residual = 0.00189403, Final residual = 2.2841e-06, No Iterations 1
DICPCG:  Solving for p, Initial residual = 0.0318422, Final residual = 0.00136566, No Iterations 161
time step continuity errors : sum local = 1.30199e-07, global = -6.57385e-10, cumulative = -2.41031e-07
DICPCG:  Solving for p, Initial residual = 0.0238186, Final residual = 8.77129e-07, No Iterations 193
time step continuity errors : sum local = 4.31927e-11, global = 5.4724e-14, cumulative = -2.41031e-07
DILUPBiCG:  Solving for k, Initial residual = 0.00291459, Final residual = 2.31895e-06, No Iterations 1
bounding k, min: 0 max: 17.5416 average: 0.116686
ExecutionTime = 40.31 s  ClockTime = 40 s

Calculating averages

Time = 0.00059

Courant Number mean: 0.0424087 max: 0.62786
DILUPBiCG:  Solving for Ux, Initial residual = 0.0046129, Final residual = 1.24474e-10, No Iterations 3
DILUPBiCG:  Solving for Uy, Initial residual = 0.00161993, Final residual = 4.25995e-06, No Iterations 1
DICPCG:  Solving for p, Initial residual = 0.0564869, Final residual = 0.00254127, No Iterations 143
time step continuity errors : sum local = 1.24653e-07, global = 1.72191e-09, cumulative = -2.39309e-07
DICPCG:  Solving for p, Initial residual = 0.00450881, Final residual = 9.23412e-07, No Iterations 134
time step continuity errors : sum local = 5.40083e-11, global = -4.80943e-13, cumulative = -2.39309e-07
DILUPBiCG:  Solving for k, Initial residual = 0.00285277, Final residual = 1.95132e-06, No Iterations 1
bounding k, min: 0 max: 18.0704 average: 0.117315
ExecutionTime = 40.94 s  ClockTime = 41 s

Calculating averages

Time = 0.0006

Courant Number mean: 0.042478 max: 0.624647
DILUPBiCG:  Solving for Ux, Initial residual = 0.00761435, Final residual = 8.80129e-06, No Iterations 1
DILUPBiCG:  Solving for Uy, Initial residual = 0.00176296, Final residual = 4.96157e-06, No Iterations 1
DICPCG:  Solving for p, Initial residual = 0.0535183, Final residual = 0.00256194, No Iterations 157
time step continuity errors : sum local = 1.49622e-07, global = -3.65203e-10, cumulative = -2.39674e-07
DICPCG:  Solving for p, Initial residual = 0.0160815, Final residual = 9.48437e-07, No Iterations 189
time step continuity errors : sum local = 4.32281e-11, global = -3.29952e-13, cumulative = -2.39675e-07
DILUPBiCG:  Solving for k, Initial residual = 0.00280087, Final residual = 1.70476e-06, No Iterations 1
bounding k, min: 0 max: 18.6803 average: 0.117926
ExecutionTime = 41.63 s  ClockTime = 42 s

Calculating averages

Time = 0.00061

Courant Number mean: 0.042455 max: 0.617562
DILUPBiCG:  Solving for Ux, Initial residual = 0.00530817, Final residual = 2.29873e-06, No Iterations 1
DILUPBiCG:  Solving for Uy, Initial residual = 0.00137063, Final residual = 2.66086e-06, No Iterations 1
DICPCG:  Solving for p, Initial residual = 0.0786915, Final residual = 0.00392935, No Iterations 154
time step continuity errors : sum local = 1.79573e-07, global = -5.64134e-10, cumulative = -2.40239e-07
DICPCG:  Solving for p, Initial residual = 0.0136882, Final residual = 9.77054e-07, No Iterations 189
time step continuity errors : sum local = 4.01078e-11, global = 2.87688e-13, cumulative = -2.40238e-07
DILUPBiCG:  Solving for k, Initial residual = 0.002748, Final residual = 1.15255e-06, No Iterations 1
bounding k, min: 0 max: 19.3635 average: 0.118524
ExecutionTime = 42.32 s  ClockTime = 42 s

Calculating averages

Time = 0.00062

Courant Number mean: 0.0424747 max: 0.624207
DILUPBiCG:  Solving for Ux, Initial residual = 0.00366337, Final residual = 1.13169e-06, No Iterations 2
DILUPBiCG:  Solving for Uy, Initial residual = 0.0015782, Final residual = 3.44489e-06, No Iterations 1
DICPCG:  Solving for p, Initial residual = 0.0576684, Final residual = 0.00281667, No Iterations 147
time step continuity errors : sum local = 1.14821e-07, global = 6.03307e-11, cumulative = -2.40178e-07
DICPCG:  Solving for p, Initial residual = 0.00531692, Final residual = 9.32253e-07, No Iterations 184
time step continuity errors : sum local = 4.86725e-11, global = 3.99636e-13, cumulative = -2.40178e-07
DILUPBiCG:  Solving for k, Initial residual = 0.0026919, Final residual = 1.55244e-06, No Iterations 1
bounding k, min: 0 max: 20.1075 average: 0.119117
ExecutionTime = 42.99 s  ClockTime = 43 s

Calculating averages

Time = 0.00063

Courant Number mean: 0.0425353 max: 0.632615
DILUPBiCG:  Solving for Ux, Initial residual = 0.0063749, Final residual = 5.02619e-07, No Iterations 2
DILUPBiCG:  Solving for Uy, Initial residual = 0.00165685, Final residual = 3.6283e-06, No Iterations 1
DICPCG:  Solving for p, Initial residual = 0.0598529, Final residual = 0.00291223, No Iterations 142
time step continuity errors : sum local = 1.5269e-07, global = -5.55404e-10, cumulative = -2.40733e-07
DICPCG:  Solving for p, Initial residual = 0.00463662, Final residual = 9.77667e-07, No Iterations 182
time step continuity errors : sum local = 6.01457e-11, global = 2.21139e-14, cumulative = -2.40733e-07
DILUPBiCG:  Solving for k, Initial residual = 0.00264225, Final residual = 1.98487e-06, No Iterations 1
bounding k, min: 0 max: 20.8952 average: 0.119711
ExecutionTime = 43.66 s  ClockTime = 44 s

Calculating averages

Time = 0.00064

Courant Number mean: 0.0426275 max: 0.639571
DILUPBiCG:  Solving for Ux, Initial residual = 0.00860853, Final residual = 7.69457e-06, No Iterations 1
DILUPBiCG:  Solving for Uy, Initial residual = 0.00189897, Final residual = 4.15711e-06, No Iterations 1
DICPCG:  Solving for p, Initial residual = 0.0567143, Final residual = 0.00272841, No Iterations 155
time step continuity errors : sum local = 1.67654e-07, global = -1.03223e-09, cumulative = -2.41765e-07
DICPCG:  Solving for p, Initial residual = 0.0172881, Final residual = 8.18942e-07, No Iterations 191
time step continuity errors : sum local = 3.52714e-11, global = -1.16162e-14, cumulative = -2.41765e-07
DILUPBiCG:  Solving for k, Initial residual = 0.00260074, Final residual = 2.04786e-06, No Iterations 1
bounding k, min: 0 max: 21.6184 average: 0.120288
ExecutionTime = 44.35 s  ClockTime = 45 s

Calculating averages

Time = 0.00065

Courant Number mean: 0.0426161 max: 0.642631
DILUPBiCG:  Solving for Ux, Initial residual = 0.00442087, Final residual = 8.58406e-07, No Iterations 2
DILUPBiCG:  Solving for Uy, Initial residual = 0.00146956, Final residual = 2.26575e-06, No Iterations 1
DICPCG:  Solving for p, Initial residual = 0.0728064, Final residual = 0.00351446, No Iterations 157
time step continuity errors : sum local = 1.50776e-07, global = -5.82312e-10, cumulative = -2.42348e-07
DICPCG:  Solving for p, Initial residual = 0.0122582, Final residual = 9.21358e-07, No Iterations 189
time step continuity errors : sum local = 4.29522e-11, global = 3.33975e-13, cumulative = -2.42347e-07
DILUPBiCG:  Solving for k, Initial residual = 0.00255247, Final residual = 1.93842e-06, No Iterations 1
bounding k, min: 0 max: 22.231 average: 0.120852
ExecutionTime = 45.04 s  ClockTime = 45 s

Calculating averages

Time = 0.00066

Courant Number mean: 0.0426561 max: 0.642839
DILUPBiCG:  Solving for Ux, Initial residual = 0.00497257, Final residual = 9.98448e-07, No Iterations 2
DILUPBiCG:  Solving for Uy, Initial residual = 0.00182769, Final residual = 2.75411e-06, No Iterations 1
DICPCG:  Solving for p, Initial residual = 0.0785206, Final residual = 0.00363131, No Iterations 146
time step continuity errors : sum local = 1.69946e-07, global = 2.30843e-10, cumulative = -2.42116e-07
DICPCG:  Solving for p, Initial residual = 0.00577905, Final residual = 9.95632e-07, No Iterations 186
time step continuity errors : sum local = 5.35445e-11, global = 2.29463e-13, cumulative = -2.42116e-07
DILUPBiCG:  Solving for k, Initial residual = 0.00251383, Final residual = 1.97089e-06, No Iterations 1
bounding k, min: 0 max: 22.7105 average: 0.121408
ExecutionTime = 45.72 s  ClockTime = 46 s

Calculating averages

Time = 0.00067

Courant Number mean: 0.042724 max: 0.640533
DILUPBiCG:  Solving for Ux, Initial residual = 0.00662069, Final residual = 3.95795e-07, No Iterations 2
DILUPBiCG:  Solving for Uy, Initial residual = 0.00168728, Final residual = 2.66653e-06, No Iterations 1
DICPCG:  Solving for p, Initial residual = 0.0571181, Final residual = 0.00285275, No Iterations 157
time step continuity errors : sum local = 1.52908e-07, global = -7.18394e-11, cumulative = -2.42188e-07
DICPCG:  Solving for p, Initial residual = 0.0139392, Final residual = 8.55113e-07, No Iterations 190
time step continuity errors : sum local = 4.92974e-11, global = -1.78294e-13, cumulative = -2.42188e-07
DILUPBiCG:  Solving for k, Initial residual = 0.00248668, Final residual = 1.18628e-06, No Iterations 1
bounding k, min: 0 max: 23.0371 average: 0.121936
ExecutionTime = 46.41 s  ClockTime = 47 s

Calculating averages

Time = 0.00068

Courant Number mean: 0.042673 max: 0.634112
DILUPBiCG:  Solving for Ux, Initial residual = 0.00784185, Final residual = 6.62553e-06, No Iterations 1
DILUPBiCG:  Solving for Uy, Initial residual = 0.00150394, Final residual = 2.85553e-06, No Iterations 1
DICPCG:  Solving for p, Initial residual = 0.059389, Final residual = 0.00287019, No Iterations 157
time step continuity errors : sum local = 1.65466e-07, global = -2.15837e-10, cumulative = -2.42404e-07
DICPCG:  Solving for p, Initial residual = 0.0142177, Final residual = 9.4247e-07, No Iterations 190
time step continuity errors : sum local = 6.30943e-11, global = 2.92797e-13, cumulative = -2.42404e-07
DILUPBiCG:  Solving for k, Initial residual = 0.00245894, Final residual = 1.35987e-06, No Iterations 1
bounding k, min: 0 max: 23.2137 average: 0.122452
ExecutionTime = 47.1 s  ClockTime = 47 s

Calculating averages

Time = 0.00069

Courant Number mean: 0.042741 max: 0.626559
DILUPBiCG:  Solving for Ux, Initial residual = 0.00872439, Final residual = 2.2472e-07, No Iterations 2
DILUPBiCG:  Solving for Uy, Initial residual = 0.00192228, Final residual = 2.5595e-06, No Iterations 1
DICPCG:  Solving for p, Initial residual = 0.0397487, Final residual = 0.0019411, No Iterations 155
time step continuity errors : sum local = 1.29414e-07, global = 1.73748e-10, cumulative = -2.4223e-07
DICPCG:  Solving for p, Initial residual = 0.0108656, Final residual = 8.51995e-07, No Iterations 188
time step continuity errors : sum local = 3.36496e-11, global = -2.90006e-13, cumulative = -2.4223e-07
DILUPBiCG:  Solving for k, Initial residual = 0.0024263, Final residual = 1.66759e-06, No Iterations 1
bounding k, min: 0 max: 23.238 average: 0.122952
ExecutionTime = 47.79 s  ClockTime = 48 s

Calculating averages

Time = 0.0007

Courant Number mean: 0.0427876 max: 0.620758
DILUPBiCG:  Solving for Ux, Initial residual = 0.00402145, Final residual = 1.44867e-06, No Iterations 2
DILUPBiCG:  Solving for Uy, Initial residual = 0.00161146, Final residual = 2.6038e-06, No Iterations 1
DICPCG:  Solving for p, Initial residual = 0.0771937, Final residual = 0.00345622, No Iterations 143
time step continuity errors : sum local = 1.35682e-07, global = 1.32717e-09, cumulative = -2.40903e-07
DICPCG:  Solving for p, Initial residual = 0.00567273, Final residual = 9.11104e-07, No Iterations 175
time step continuity errors : sum local = 4.243e-11, global = -2.15393e-13, cumulative = -2.40903e-07
DILUPBiCG:  Solving for k, Initial residual = 0.00239962, Final residual = 1.97239e-06, No Iterations 1
bounding k, min: 0 max: 23.1094 average: 0.123436
ExecutionTime = 48.46 s  ClockTime = 49 s

Calculating averages

Time = 0.00071

Courant Number mean: 0.042847 max: 0.626241
DILUPBiCG:  Solving for Ux, Initial residual = 0.00542772, Final residual = 7.18733e-07, No Iterations 2
DILUPBiCG:  Solving for Uy, Initial residual = 0.0018937, Final residual = 3.00775e-06, No Iterations 1
DICPCG:  Solving for p, Initial residual = 0.0645168, Final residual = 0.00296884, No Iterations 144
time step continuity errors : sum local = 1.38579e-07, global = -3.24009e-09, cumulative = -2.44143e-07
DICPCG:  Solving for p, Initial residual = 0.00931676, Final residual = 8.93567e-07, No Iterations 185
time step continuity errors : sum local = 3.05233e-11, global = -1.36169e-13, cumulative = -2.44144e-07
DILUPBiCG:  Solving for k, Initial residual = 0.00237705, Final residual = 1.18237e-06, No Iterations 1
bounding k, min: 0 max: 22.8305 average: 0.123899
ExecutionTime = 49.13 s  ClockTime = 49 s

Calculating averages

Time = 0.00072

Courant Number mean: 0.0428793 max: 0.628263
DILUPBiCG:  Solving for Ux, Initial residual = 0.00294631, Final residual = 3.9876e-07, No Iterations 2
DILUPBiCG:  Solving for Uy, Initial residual = 0.00171448, Final residual = 3.35262e-06, No Iterations 1
DICPCG:  Solving for p, Initial residual = 0.0801212, Final residual = 0.00381759, No Iterations 158
time step continuity errors : sum local = 1.30496e-07, global = -4.31972e-10, cumulative = -2.44576e-07
DICPCG:  Solving for p, Initial residual = 0.00778641, Final residual = 9.22778e-07, No Iterations 187
time step continuity errors : sum local = 7.02817e-11, global = 3.34215e-13, cumulative = -2.44575e-07
DILUPBiCG:  Solving for k, Initial residual = 0.0023522, Final residual = 1.6647e-06, No Iterations 1
bounding k, min: 0 max: 22.4133 average: 0.124351
ExecutionTime = 49.82 s  ClockTime = 50 s

Calculating averages

Time = 0.00073

Courant Number mean: 0.0429978 max: 0.628025
DILUPBiCG:  Solving for Ux, Initial residual = 0.0113486, Final residual = 1.29059e-07, No Iterations 2
DILUPBiCG:  Solving for Uy, Initial residual = 0.00210748, Final residual = 3.28795e-06, No Iterations 1
DICPCG:  Solving for p, Initial residual = 0.0439161, Final residual = 0.00212017, No Iterations 158
time step continuity errors : sum local = 1.62092e-07, global = 7.14774e-10, cumulative = -2.4386e-07
DICPCG:  Solving for p, Initial residual = 0.0168582, Final residual = 9.67449e-07, No Iterations 191
time step continuity errors : sum local = 6.76377e-11, global = -2.68467e-13, cumulative = -2.43861e-07
DILUPBiCG:  Solving for k, Initial residual = 0.00234374, Final residual = 2.71515e-06, No Iterations 1
bounding k, min: 0 max: 21.8532 average: 0.124763
ExecutionTime = 50.51 s  ClockTime = 51 s

Calculating averages

Time = 0.00074

Courant Number mean: 0.0429386 max: 0.623519
DILUPBiCG:  Solving for Ux, Initial residual = 0.0100009, Final residual = 9.73647e-06, No Iterations 1
DILUPBiCG:  Solving for Uy, Initial residual = 0.00165456, Final residual = 4.9518e-06, No Iterations 1
DICPCG:  Solving for p, Initial residual = 0.0507161, Final residual = 0.00229411, No Iterations 152
time step continuity errors : sum local = 1.60851e-07, global = -8.25088e-10, cumulative = -2.44686e-07
DICPCG:  Solving for p, Initial residual = 0.00916641, Final residual = 8.89629e-07, No Iterations 187
time step continuity errors : sum local = 4.27777e-11, global = 4.81777e-13, cumulative = -2.44685e-07
DILUPBiCG:  Solving for k, Initial residual = 0.00234426, Final residual = 2.55323e-06, No Iterations 1
bounding k, min: 0 max: 21.1763 average: 0.125126
ExecutionTime = 51.19 s  ClockTime = 51 s

Calculating averages

Time = 0.00075

Courant Number mean: 0.0428714 max: 0.617112
DILUPBiCG:  Solving for Ux, Initial residual = 0.00661876, Final residual = 2.20632e-07, No Iterations 2
DILUPBiCG:  Solving for Uy, Initial residual = 0.00170868, Final residual = 6.15332e-06, No Iterations 1
DICPCG:  Solving for p, Initial residual = 0.0713161, Final residual = 0.00328888, No Iterations 154
time step continuity errors : sum local = 1.56267e-07, global = -8.47683e-10, cumulative = -2.45533e-07
DICPCG:  Solving for p, Initial residual = 0.0145094, Final residual = 8.61787e-07, No Iterations 191
time step continuity errors : sum local = 3.17274e-11, global = 1.28281e-13, cumulative = -2.45533e-07
DILUPBiCG:  Solving for k, Initial residual = 0.0023252, Final residual = 1.43384e-06, No Iterations 1
bounding k, min: 0 max: 20.3995 average: 0.125451
ExecutionTime = 51.88 s  ClockTime = 52 s

Calculating averages

Time = 0.00076

Courant Number mean: 0.0428678 max: 0.61025
DILUPBiCG:  Solving for Ux, Initial residual = 0.00237105, Final residual = 1.8628e-07, No Iterations 2
DILUPBiCG:  Solving for Uy, Initial residual = 0.00160225, Final residual = 4.27554e-06, No Iterations 1
DICPCG:  Solving for p, Initial residual = 0.0841523, Final residual = 0.00370156, No Iterations 151
time step continuity errors : sum local = 1.36001e-07, global = -7.66627e-11, cumulative = -2.4561e-07
DICPCG:  Solving for p, Initial residual = 0.0106084, Final residual = 9.62608e-07, No Iterations 188
time step continuity errors : sum local = 3.29196e-11, global = -4.15063e-13, cumulative = -2.4561e-07
DILUPBiCG:  Solving for k, Initial residual = 0.00231776, Final residual = 1.1166e-06, No Iterations 1
bounding k, min: 0 max: 19.5359 average: 0.125738
ExecutionTime = 52.56 s  ClockTime = 53 s

Calculating averages

Time = 0.00077

Courant Number mean: 0.042844 max: 0.604102
DILUPBiCG:  Solving for Ux, Initial residual = 0.00318643, Final residual = 6.65613e-07, No Iterations 2
DILUPBiCG:  Solving for Uy, Initial residual = 0.00145871, Final residual = 4.53952e-06, No Iterations 1
DICPCG:  Solving for p, Initial residual = 0.0861262, Final residual = 0.00415146, No Iterations 157
time step continuity errors : sum local = 1.43327e-07, global = 6.83347e-11, cumulative = -2.45542e-07
DICPCG:  Solving for p, Initial residual = 0.010235, Final residual = 8.13537e-07, No Iterations 188
time step continuity errors : sum local = 6.11676e-11, global = 3.90376e-13, cumulative = -2.45541e-07
DILUPBiCG:  Solving for k, Initial residual = 0.00230833, Final residual = 1.15695e-06, No Iterations 1
bounding k, min: 0 max: 18.6105 average: 0.126005
ExecutionTime = 53.26 s  ClockTime = 53 s

Calculating averages

Time = 0.00078

Courant Number mean: 0.0429345 max: 0.603888
DILUPBiCG:  Solving for Ux, Initial residual = 0.0104432, Final residual = 1.01737e-07, No Iterations 2
DILUPBiCG:  Solving for Uy, Initial residual = 0.00217955, Final residual = 6.71683e-06, No Iterations 1
DICPCG:  Solving for p, Initial residual = 0.0499167, Final residual = 0.00227251, No Iterations 161
time step continuity errors : sum local = 1.71709e-07, global = 5.42933e-10, cumulative = -2.44998e-07
DICPCG:  Solving for p, Initial residual = 0.0154378, Final residual = 9.31474e-07, No Iterations 190
time step continuity errors : sum local = 8.54107e-11, global = -3.44652e-13, cumulative = -2.44999e-07
DILUPBiCG:  Solving for k, Initial residual = 0.00231361, Final residual = 1.31432e-06, No Iterations 1
bounding k, min: 0 max: 17.6316 average: 0.126226
ExecutionTime = 53.95 s  ClockTime = 54 s

Calculating averages

Time = 0.00079

Courant Number mean: 0.0428219 max: 0.599352
DILUPBiCG:  Solving for Ux, Initial residual = 0.0146598, Final residual = 7.11445e-06, No Iterations 1
DILUPBiCG:  Solving for Uy, Initial residual = 0.00194677, Final residual = 8.61577e-06, No Iterations 1
DICPCG:  Solving for p, Initial residual = 0.0358717, Final residual = 0.0016448, No Iterations 161
time step continuity errors : sum local = 1.50513e-07, global = -3.03301e-10, cumulative = -2.45302e-07
DICPCG:  Solving for p, Initial residual = 0.0200875, Final residual = 9.81494e-07, No Iterations 191
time step continuity errors : sum local = 6.0499e-11, global = 1.40118e-13, cumulative = -2.45302e-07
DILUPBiCG:  Solving for k, Initial residual = 0.00229833, Final residual = 1.52301e-06, No Iterations 1
bounding k, min: 0 max: 16.6283 average: 0.126419
ExecutionTime = 54.64 s  ClockTime = 55 s

Calculating averages

Time = 0.0008

Courant Number mean: 0.0428519 max: 0.594568
DILUPBiCG:  Solving for Ux, Initial residual = 0.00676115, Final residual = 1.473e-07, No Iterations 2
DILUPBiCG:  Solving for Uy, Initial residual = 0.00192626, Final residual = 6.62825e-06, No Iterations 1
DICPCG:  Solving for p, Initial residual = 0.0436552, Final residual = 0.00187123, No Iterations 157
time step continuity errors : sum local = 1.14361e-07, global = -4.56811e-10, cumulative = -2.45759e-07
DICPCG:  Solving for p, Initial residual = 0.0191633, Final residual = 9.08029e-07, No Iterations 181
time step continuity errors : sum local = 2.498e-11, global = 8.51412e-14, cumulative = -2.45759e-07
DILUPBiCG:  Solving for k, Initial residual = 0.0022782, Final residual = 1.39194e-06, No Iterations 1
bounding k, min: 0 max: 15.6221 average: 0.126586
ExecutionTime = 55.32 s  ClockTime = 55 s

Calculating averages

Time = 0.00081

Courant Number mean: 0.0428532 max: 0.588888
DILUPBiCG:  Solving for Ux, Initial residual = 0.00151267, Final residual = 1.24941e-07, No Iterations 2
DILUPBiCG:  Solving for Uy, Initial residual = 0.00165211, Final residual = 6.44189e-06, No Iterations 1
DICPCG:  Solving for p, Initial residual = 0.11259, Final residual = 0.00482258, No Iterations 161
time step continuity errors : sum local = 1.35484e-07, global = 6.26493e-10, cumulative = -2.45132e-07
DICPCG:  Solving for p, Initial residual = 0.00966139, Final residual = 8.97948e-07, No Iterations 187
time step continuity errors : sum local = 1.07542e-10, global = -6.92866e-13, cumulative = -2.45133e-07
DILUPBiCG:  Solving for k, Initial residual = 0.00227579, Final residual = 1.25787e-06, No Iterations 1
bounding k, min: 0 max: 14.6216 average: 0.126696
ExecutionTime = 56.02 s  ClockTime = 56 s

Calculating averages

Time = 0.00082

Courant Number mean: 0.0426495 max: 0.581496
DILUPBiCG:  Solving for Ux, Initial residual = 0.0214137, Final residual = 4.21742e-06, No Iterations 1
DILUPBiCG:  Solving for Uy, Initial residual = 0.00256194, Final residual = 1.84277e-07, No Iterations 2
DICPCG:  Solving for p, Initial residual = 0.0286035, Final residual = 0.00138635, No Iterations 158
time step continuity errors : sum local = 1.6632e-07, global = -4.16663e-10, cumulative = -2.45549e-07
DICPCG:  Solving for p, Initial residual = 0.0296832, Final residual = 9.65763e-07, No Iterations 194
time step continuity errors : sum local = 3.5294e-11, global = 1.58705e-14, cumulative = -2.45549e-07
DILUPBiCG:  Solving for k, Initial residual = 0.00226778, Final residual = 1.30389e-06, No Iterations 1
bounding k, min: 0 max: 13.6486 average: 0.126758
ExecutionTime = 56.72 s  ClockTime = 57 s

Calculating averages

Time = 0.00083

Courant Number mean: 0.0425564 max: 0.57583
DILUPBiCG:  Solving for Ux, Initial residual = 0.00487696, Final residual = 1.6763e-07, No Iterations 2
DILUPBiCG:  Solving for Uy, Initial residual = 0.00150582, Final residual = 6.46751e-06, No Iterations 1
DICPCG:  Solving for p, Initial residual = 0.0906883, Final residual = 0.00422712, No Iterations 154
time step continuity errors : sum local = 1.53582e-07, global = -6.40141e-10, cumulative = -2.4619e-07
DICPCG:  Solving for p, Initial residual = 0.00772635, Final residual = 7.6409e-07, No Iterations 187
time step continuity errors : sum local = 5.72443e-11, global = -3.17673e-13, cumulative = -2.4619e-07
DILUPBiCG:  Solving for k, Initial residual = 0.00226595, Final residual = 1.38967e-06, No Iterations 1
bounding k, min: 0 max: 12.7184 average: 0.126773
ExecutionTime = 57.4 s  ClockTime = 58 s

Calculating averages

Time = 0.00084

Courant Number mean: 0.0424191 max: 0.570914
DILUPBiCG:  Solving for Ux, Initial residual = 0.0123363, Final residual = 9.76503e-06, No Iterations 1
DILUPBiCG:  Solving for Uy, Initial residual = 0.00182725, Final residual = 9.33443e-06, No Iterations 1
DICPCG:  Solving for p, Initial residual = 0.0462765, Final residual = 0.00194471, No Iterations 158
time step continuity errors : sum local = 1.45883e-07, global = -5.21289e-11, cumulative = -2.46242e-07
DICPCG:  Solving for p, Initial residual = 0.0187908, Final residual = 9.04108e-07, No Iterations 191
time step continuity errors : sum local = 4.19539e-11, global = 1.6109e-13, cumulative = -2.46242e-07
DILUPBiCG:  Solving for k, Initial residual = 0.00224453, Final residual = 1.68851e-06, No Iterations 1
bounding k, min: 0 max: 11.8485 average: 0.126761
ExecutionTime = 58.09 s  ClockTime = 58 s

Calculating averages

Time = 0.00085

Courant Number mean: 0.0424061 max: 0.568337
DILUPBiCG:  Solving for Ux, Initial residual = 0.00327574, Final residual = 1.27043e-06, No Iterations 2
DILUPBiCG:  Solving for Uy, Initial residual = 0.00165685, Final residual = 7.34028e-06, No Iterations 1
DICPCG:  Solving for p, Initial residual = 0.0771016, Final residual = 0.00385274, No Iterations 154
time step continuity errors : sum local = 1.76739e-07, global = 2.09555e-10, cumulative = -2.46032e-07
DICPCG:  Solving for p, Initial residual = 0.00706637, Final residual = 7.89174e-07, No Iterations 187
time step continuity errors : sum local = 6.84956e-11, global = 5.13797e-13, cumulative = -2.46032e-07
DILUPBiCG:  Solving for k, Initial residual = 0.0022024, Final residual = 1.69287e-06, No Iterations 1
bounding k, min: 0 max: 11.5612 average: 0.12675
ExecutionTime = 58.78 s  ClockTime = 59 s

Calculating averages

Time = 0.00086

Courant Number mean: 0.0425255 max: 0.567959
DILUPBiCG:  Solving for Ux, Initial residual = 0.0128046, Final residual = 3.69574e-08, No Iterations 2
DILUPBiCG:  Solving for Uy, Initial residual = 0.00214789, Final residual = 9.20243e-06, No Iterations 1
DICPCG:  Solving for p, Initial residual = 0.035517, Final residual = 0.00162756, No Iterations 155
time step continuity errors : sum local = 1.4177e-07, global = -5.62485e-10, cumulative = -2.46594e-07
DICPCG:  Solving for p, Initial residual = 0.00894426, Final residual = 9.77708e-07, No Iterations 187
time step continuity errors : sum local = 5.38597e-11, global = -3.42804e-13, cumulative = -2.46595e-07
DILUPBiCG:  Solving for k, Initial residual = 0.00216047, Final residual = 2.02487e-06, No Iterations 1
bounding k, min: 0 max: 11.7162 average: 0.126742
ExecutionTime = 59.46 s  ClockTime = 60 s

Calculating averages

Time = 0.00087

Courant Number mean: 0.0426185 max: 0.568094
DILUPBiCG:  Solving for Ux, Initial residual = 0.00699245, Final residual = 6.8556e-08, No Iterations 2
DILUPBiCG:  Solving for Uy, Initial residual = 0.0019794, Final residual = 6.22496e-08, No Iterations 2
DICPCG:  Solving for p, Initial residual = 0.0619311, Final residual = 0.00273519, No Iterations 157
time step continuity errors : sum local = 1.49741e-07, global = 9.28857e-12, cumulative = -2.46585e-07
DICPCG:  Solving for p, Initial residual = 0.0132327, Final residual = 9.95338e-07, No Iterations 189
time step continuity errors : sum local = 6.64212e-11, global = -3.70136e-13, cumulative = -2.46586e-07
DILUPBiCG:  Solving for k, Initial residual = 0.00213595, Final residual = 2.22488e-06, No Iterations 1
bounding k, min: 0 max: 11.7951 average: 0.126718
ExecutionTime = 60.15 s  ClockTime = 60 s

Calculating averages

Time = 0.00088

Courant Number mean: 0.0425594 max: 0.567019
[...]
DILUPBiCG:  Solving for Uy, Initial residual = 0.00223193, Final residual = 9.13756e-07, No Iterations 1
DICPCG:  Solving for p, Initial residual = 0.0607355, Final residual = 0.00277077, No Iterations 160
time step continuity errors : sum local = 9.40665e-08, global = -6.28484e-10, cumulative = -3.55179e-07
DICPCG:  Solving for p, Initial residual = 0.0125296, Final residual = 9.37547e-07, No Iterations 188
time step continuity errors : sum local = 5.03021e-11, global = 2.3259e-13, cumulative = -3.55179e-07
DILUPBiCG:  Solving for k, Initial residual = 0.000250391, Final residual = 6.90816e-08, No Iterations 1
bounding k, min: 0 max: 9.83907 average: 0.0991291
ExecutionTime = 524.06 s  ClockTime = 524 s

Calculating averages

Time = 0.00755

Courant Number mean: 0.0463614 max: 0.310601
DILUPBiCG:  Solving for Ux, Initial residual = 0.00490921, Final residual = 9.45897e-07, No Iterations 1
DILUPBiCG:  Solving for Uy, Initial residual = 0.0024227, Final residual = 8.46673e-07, No Iterations 1
DICPCG:  Solving for p, Initial residual = 0.0401663, Final residual = 0.00194643, No Iterations 151
time step continuity errors : sum local = 1.05112e-07, global = 3.73912e-10, cumulative = -3.54805e-07
DICPCG:  Solving for p, Initial residual = 0.00377231, Final residual = 9.45347e-07, No Iterations 183
time step continuity errors : sum local = 6.50691e-11, global = 4.54425e-13, cumulative = -3.54804e-07
DILUPBiCG:  Solving for k, Initial residual = 0.000245058, Final residual = 6.807e-08, No Iterations 1
bounding k, min: 0 max: 9.83851 average: 0.0991319
ExecutionTime = 524.74 s  ClockTime = 525 s

Calculating averages

Time = 0.00756

Courant Number mean: 0.0464811 max: 0.310605
DILUPBiCG:  Solving for Ux, Initial residual = 0.00744972, Final residual = 8.41968e-07, No Iterations 1
DILUPBiCG:  Solving for Uy, Initial residual = 0.00261757, Final residual = 8.32328e-07, No Iterations 1
DICPCG:  Solving for p, Initial residual = 0.0364375, Final residual = 0.00176244, No Iterations 158
time step continuity errors : sum local = 1.21471e-07, global = -3.41668e-10, cumulative = -3.55146e-07
DICPCG:  Solving for p, Initial residual = 0.0264609, Final residual = 9.97343e-07, No Iterations 193
time step continuity errors : sum local = 2.28447e-11, global = 5.05801e-14, cumulative = -3.55146e-07
DILUPBiCG:  Solving for k, Initial residual = 0.000245298, Final residual = 6.50344e-08, No Iterations 1
bounding k, min: 0 max: 9.83624 average: 0.0991394
ExecutionTime = 525.43 s  ClockTime = 526 s

Calculating averages

Time = 0.00757

Courant Number mean: 0.0465328 max: 0.310215
DILUPBiCG:  Solving for Ux, Initial residual = 0.00171014, Final residual = 3.76963e-06, No Iterations 1
DILUPBiCG:  Solving for Uy, Initial residual = 0.00216472, Final residual = 8.52424e-07, No Iterations 1
DICPCG:  Solving for p, Initial residual = 0.0957208, Final residual = 0.00429408, No Iterations 161
time step continuity errors : sum local = 9.67e-08, global = 6.05367e-10, cumulative = -3.5454e-07
DICPCG:  Solving for p, Initial residual = 0.0105508, Final residual = 9.90818e-07, No Iterations 187
time step continuity errors : sum local = 8.71149e-11, global = -4.51718e-13, cumulative = -3.54541e-07
DILUPBiCG:  Solving for k, Initial residual = 0.000243939, Final residual = 6.383e-08, No Iterations 1
bounding k, min: 0 max: 9.83053 average: 0.0991398
ExecutionTime = 526.12 s  ClockTime = 526 s

Calculating averages

Time = 0.00758

Courant Number mean: 0.0464122 max: 0.309124
DILUPBiCG:  Solving for Ux, Initial residual = 0.00988058, Final residual = 1.12955e-06, No Iterations 1
DILUPBiCG:  Solving for Uy, Initial residual = 0.00258214, Final residual = 1.29195e-06, No Iterations 1
DICPCG:  Solving for p, Initial residual = 0.0295693, Final residual = 0.00141711, No Iterations 162
time step continuity errors : sum local = 1.25422e-07, global = -6.53798e-10, cumulative = -3.55195e-07
DICPCG:  Solving for p, Initial residual = 0.0270512, Final residual = 8.67279e-07, No Iterations 194
time step continuity errors : sum local = 3.71948e-11, global = 1.04856e-14, cumulative = -3.55195e-07
DILUPBiCG:  Solving for k, Initial residual = 0.000244684, Final residual = 6.33966e-08, No Iterations 1
bounding k, min: 0 max: 9.82661 average: 0.09914
ExecutionTime = 526.81 s  ClockTime = 527 s

Calculating averages

Time = 0.00759

Courant Number mean: 0.0464247 max: 0.308294
DILUPBiCG:  Solving for Ux, Initial residual = 0.0029157, Final residual = 1.20339e-06, No Iterations 1
DILUPBiCG:  Solving for Uy, Initial residual = 0.00234749, Final residual = 9.68514e-07, No Iterations 1
DICPCG:  Solving for p, Initial residual = 0.0594153, Final residual = 0.00274655, No Iterations 17
time step continuity errors : sum local = 1.15832e-07, global = -2.76166e-08, cumulative = -3.82811e-07
DICPCG:  Solving for p, Initial residual = 0.00361934, Final residual = 8.08604e-07, No Iterations 182
time step continuity errors : sum local = 3.40065e-11, global = 8.93243e-14, cumulative = -3.82811e-07
DILUPBiCG:  Solving for k, Initial residual = 0.000244239, Final residual = 6.24692e-08, No Iterations 1
bounding k, min: 0 max: 9.82358 average: 0.0991438
ExecutionTime = 527.37 s  ClockTime = 528 s

Calculating averages

Time = 0.0076

Courant Number mean: 0.0464838 max: 0.307492
DILUPBiCG:  Solving for Ux, Initial residual = 0.00394464, Final residual = 1.08174e-06, No Iterations 1
DILUPBiCG:  Solving for Uy, Initial residual = 0.00226128, Final residual = 8.16027e-07, No Iterations 1
DICPCG:  Solving for p, Initial residual = 0.0546889, Final residual = 0.00222587, No Iterations 160
time step continuity errors : sum local = 9.98323e-08, global = 3.1263e-10, cumulative = -3.82499e-07
DICPCG:  Solving for p, Initial residual = 0.0171886, Final residual = 9.57273e-07, No Iterations 191
time step continuity errors : sum local = 3.0601e-11, global = -3.05269e-14, cumulative = -3.82499e-07
DILUPBiCG:  Solving for k, Initial residual = 0.000243143, Final residual = 6.25633e-08, No Iterations 1
bounding k, min: 0 max: 9.82235 average: 0.0991473
ExecutionTime = 528.06 s  ClockTime = 528 s

Calculating averages

Time = 0.00761

Courant Number mean: 0.0464757 max: 0.306385
DILUPBiCG:  Solving for Ux, Initial residual = 0.00234059, Final residual = 4.03647e-07, No Iterations 1
DILUPBiCG:  Solving for Uy, Initial residual = 0.0022482, Final residual = 9.46583e-07, No Iterations 1
DICPCG:  Solving for p, Initial residual = 0.0710103, Final residual = 0.00339132, No Iterations 143
time step continuity errors : sum local = 1.07717e-07, global = -1.78652e-09, cumulative = -3.84285e-07
DICPCG:  Solving for p, Initial residual = 0.00486842, Final residual = 9.53371e-07, No Iterations 178
time step continuity errors : sum local = 3.47034e-11, global = -1.64596e-13, cumulative = -3.84285e-07
DILUPBiCG:  Solving for k, Initial residual = 0.000243365, Final residual = 6.41987e-08, No Iterations 1
bounding k, min: 0 max: 9.81874 average: 0.099146
ExecutionTime = 528.73 s  ClockTime = 529 s

Calculating averages

Time = 0.00762

Courant Number mean: 0.0464343 max: 0.305108
DILUPBiCG:  Solving for Ux, Initial residual = 0.00327653, Final residual = 3.87369e-07, No Iterations 1
DILUPBiCG:  Solving for Uy, Initial residual = 0.00226264, Final residual = 9.66416e-07, No Iterations 1
DICPCG:  Solving for p, Initial residual = 0.0783957, Final residual = 0.00366697, No Iterations 157
time step continuity errors : sum local = 1.34315e-07, global = -4.31801e-10, cumulative = -3.84717e-07
DICPCG:  Solving for p, Initial residual = 0.0138756, Final residual = 9.7825e-07, No Iterations 188
time step continuity errors : sum local = 4.38886e-11, global = 6.50922e-14, cumulative = -3.84717e-07
DILUPBiCG:  Solving for k, Initial residual = 0.000241006, Final residual = 6.64567e-08, No Iterations 1
bounding k, min: 0 max: 9.81621 average: 0.0991442
ExecutionTime = 529.42 s  ClockTime = 530 s

Calculating averages

Time = 0.00763

Courant Number mean: 0.0464752 max: 0.305459
DILUPBiCG:  Solving for Ux, Initial residual = 0.0036475, Final residual = 1.03579e-06, No Iterations 1
DILUPBiCG:  Solving for Uy, Initial residual = 0.00243932, Final residual = 1.06026e-06, No Iterations 1
DICPCG:  Solving for p, Initial residual = 0.0642851, Final residual = 0.00298724, No Iterations 158
time step continuity errors : sum local = 1.34098e-07, global = 4.63864e-10, cumulative = -3.84253e-07
DICPCG:  Solving for p, Initial residual = 0.0143306, Final residual = 8.53046e-07, No Iterations 191
time step continuity errors : sum local = 5.40436e-11, global = -2.00818e-13, cumulative = -3.84253e-07
DILUPBiCG:  Solving for k, Initial residual = 0.000245746, Final residual = 7.13622e-08, No Iterations 1
bounding k, min: 0 max: 9.81351 average: 0.0991384
ExecutionTime = 530.1 s  ClockTime = 530 s

Calculating averages

Time = 0.00764

Courant Number mean: 0.0464023 max: 0.305594
DILUPBiCG:  Solving for Ux, Initial residual = 0.00648833, Final residual = 7.74741e-07, No Iterations 1
DILUPBiCG:  Solving for Uy, Initial residual = 0.00246793, Final residual = 1.19891e-06, No Iterations 1
DICPCG:  Solving for p, Initial residual = 0.0336764, Final residual = 0.00149325, No Iterations 158
time step continuity errors : sum local = 9.41981e-08, global = -1.81521e-10, cumulative = -3.84435e-07
DICPCG:  Solving for p, Initial residual = 0.0224592, Final residual = 9.61675e-07, No Iterations 193
time step continuity errors : sum local = 2.17578e-11, global = 6.03155e-14, cumulative = -3.84435e-07
DILUPBiCG:  Solving for k, Initial residual = 0.00025084, Final residual = 8.67584e-08, No Iterations 1
bounding k, min: 0 max: 9.8128 average: 0.099129
ExecutionTime = 530.8 s  ClockTime = 531 s

Calculating averages

Time = 0.00765

Courant Number mean: 0.046368 max: 0.305715
DILUPBiCG:  Solving for Ux, Initial residual = 0.00187223, Final residual = 7.6741e-07, No Iterations 1
DILUPBiCG:  Solving for Uy, Initial residual = 0.00218247, Final residual = 8.8352e-07, No Iterations 1
DICPCG:  Solving for p, Initial residual = 0.0944822, Final residual = 0.00437593, No Iterations 152
time step continuity errors : sum local = 9.70441e-08, global = 8.30797e-10, cumulative = -3.83604e-07
DICPCG:  Solving for p, Initial residual = 0.00689817, Final residual = 9.23158e-07, No Iterations 187
time step continuity errors : sum local = 3.68505e-11, global = -4.18451e-13, cumulative = -3.83604e-07
DILUPBiCG:  Solving for k, Initial residual = 0.000259771, Final residual = 7.74741e-08, No Iterations 1
bounding k, min: 0 max: 9.81423 average: 0.0991157
ExecutionTime = 531.48 s  ClockTime = 532 s

Calculating averages

Time = 0.00766

Courant Number mean: 0.0463122 max: 0.305634
DILUPBiCG:  Solving for Ux, Initial residual = 0.00393653, Final residual = 4.82265e-07, No Iterations 1
DILUPBiCG:  Solving for Uy, Initial residual = 0.00222382, Final residual = 9.38425e-07, No Iterations 1
DICPCG:  Solving for p, Initial residual = 0.0564926, Final residual = 0.00261461, No Iterations 20
time step continuity errors : sum local = 1.05073e-07, global = -1.50284e-08, cumulative = -3.98633e-07
DICPCG:  Solving for p, Initial residual = 0.00321327, Final residual = 8.11518e-07, No Iterations 181
time step continuity errors : sum local = 3.27251e-11, global = -1.5334e-13, cumulative = -3.98633e-07
DILUPBiCG:  Solving for k, Initial residual = 0.000270772, Final residual = 6.70893e-08, No Iterations 1
bounding k, min: 0 max: 9.81175 average: 0.0990984
ExecutionTime = 532.03 s  ClockTime = 532 s

Calculating averages

Time = 0.00767

Courant Number mean: 0.0462518 max: 0.305407
DILUPBiCG:  Solving for Ux, Initial residual = 0.00389332, Final residual = 4.24924e-07, No Iterations 1
DILUPBiCG:  Solving for Uy, Initial residual = 0.00250727, Final residual = 1.41717e-06, No Iterations 1
DICPCG:  Solving for p, Initial residual = 0.0754837, Final residual = 0.00339404, No Iterations 160
time step continuity errors : sum local = 1.31872e-07, global = 7.66206e-10, cumulative = -3.97867e-07
DICPCG:  Solving for p, Initial residual = 0.0132819, Final residual = 8.36809e-07, No Iterations 191
time step continuity errors : sum local = 5.43357e-11, global = 2.16448e-13, cumulative = -3.97867e-07
DILUPBiCG:  Solving for k, Initial residual = 0.000265982, Final residual = 6.57123e-08, No Iterations 1
bounding k, min: 0 max: 9.8133 average: 0.0990854
ExecutionTime = 532.72 s  ClockTime = 533 s

Calculating averages

Time = 0.00768

Courant Number mean: 0.0463264 max: 0.305472
DILUPBiCG:  Solving for Ux, Initial residual = 0.0061985, Final residual = 8.21747e-07, No Iterations 1
DILUPBiCG:  Solving for Uy, Initial residual = 0.00251776, Final residual = 8.24653e-07, No Iterations 1
DICPCG:  Solving for p, Initial residual = 0.0406104, Final residual = 0.00177651, No Iterations 146
time step continuity errors : sum local = 1.14676e-07, global = -7.53959e-10, cumulative = -3.98621e-07
DICPCG:  Solving for p, Initial residual = 0.00263479, Final residual = 9.54655e-07, No Iterations 182
time step continuity errors : sum local = 6.62896e-11, global = 4.32528e-13, cumulative = -3.9862e-07
DILUPBiCG:  Solving for k, Initial residual = 0.000250867, Final residual = 6.27925e-08, No Iterations 1
bounding k, min: 0 max: 9.8172 average: 0.0990804
ExecutionTime = 533.4 s  ClockTime = 534 s

Calculating averages

Time = 0.00769

Courant Number mean: 0.0464537 max: 0.305589
DILUPBiCG:  Solving for Ux, Initial residual = 0.00768531, Final residual = 8.33984e-07, No Iterations 1
DILUPBiCG:  Solving for Uy, Initial residual = 0.00256772, Final residual = 8.49817e-07, No Iterations 1
DICPCG:  Solving for p, Initial residual = 0.0304254, Final residual = 0.00138119, No Iterations 162
time step continuity errors : sum local = 9.6234e-08, global = 3.92088e-10, cumulative = -3.98228e-07
DICPCG:  Solving for p, Initial residual = 0.0218359, Final residual = 9.63914e-07, No Iterations 192
time step continuity errors : sum local = 4.2898e-11, global = -1.04961e-13, cumulative = -3.98228e-07
DILUPBiCG:  Solving for k, Initial residual = 0.000246615, Final residual = 6.16884e-08, No Iterations 1
bounding k, min: 0 max: 9.81828 average: 0.0990764
ExecutionTime = 534.09 s  ClockTime = 534 s

Calculating averages

Time = 0.0077

Courant Number mean: 0.0464428 max: 0.305182
DILUPBiCG:  Solving for Ux, Initial residual = 0.00353916, Final residual = 4.0541e-07, No Iterations 1
DILUPBiCG:  Solving for Uy, Initial residual = 0.00226283, Final residual = 9.6183e-07, No Iterations 1
DICPCG:  Solving for p, Initial residual = 0.0498782, Final residual = 0.00238491, No Iterations 152
time step continuity errors : sum local = 1.05367e-07, global = -6.08868e-10, cumulative = -3.98837e-07
DICPCG:  Solving for p, Initial residual = 0.00928053, Final residual = 9.52264e-07, No Iterations 189
time step continuity errors : sum local = 2.69939e-11, global = 2.19615e-13, cumulative = -3.98837e-07
DILUPBiCG:  Solving for k, Initial residual = 0.000249741, Final residual = 6.32303e-08, No Iterations 1
bounding k, min: 0 max: 9.81235 average: 0.0990673
ExecutionTime = 534.78 s  ClockTime = 535 s

Calculating averages

Time = 0.00771

Courant Number mean: 0.0464149 max: 0.304647
DILUPBiCG:  Solving for Ux, Initial residual = 0.00228449, Final residual = 4.25156e-07, No Iterations 1
DILUPBiCG:  Solving for Uy, Initial residual = 0.00229838, Final residual = 1.00846e-06, No Iterations 1
DICPCG:  Solving for p, Initial residual = 0.0912749, Final residual = 0.00447273, No Iterations 159
time step continuity errors : sum local = 1.26308e-07, global = -4.96429e-10, cumulative = -3.99333e-07
DICPCG:  Solving for p, Initial residual = 0.0115178, Final residual = 9.33801e-07, No Iterations 188
time step continuity errors : sum local = 6.4245e-11, global = 2.7559e-13, cumulative = -3.99333e-07
DILUPBiCG:  Solving for k, Initial residual = 0.000242708, Final residual = 7.238e-08, No Iterations 1
bounding k, min: 0 max: 9.80862 average: 0.099063
ExecutionTime = 535.46 s  ClockTime = 536 s

Calculating averages

Time = 0.00772

Courant Number mean: 0.0465103 max: 0.304411
DILUPBiCG:  Solving for Ux, Initial residual = 0.00698192, Final residual = 8.40811e-07, No Iterations 1
DILUPBiCG:  Solving for Uy, Initial residual = 0.00256653, Final residual = 8.53192e-07, No Iterations 1
DICPCG:  Solving for p, Initial residual = 0.0351236, Final residual = 0.00164475, No Iterations 161
time step continuity errors : sum local = 1.13853e-07, global = 5.5605e-10, cumulative = -3.98777e-07
DICPCG:  Solving for p, Initial residual = 0.019862, Final residual = 8.96546e-07, No Iterations 192
time step continuity errors : sum local = 4.78554e-11, global = -3.14789e-14, cumulative = -3.98777e-07
DILUPBiCG:  Solving for k, Initial residual = 0.000242356, Final residual = 7.60769e-08, No Iterations 1
bounding k, min: 0 max: 9.8047 average: 0.0990575
ExecutionTime = 536.16 s  ClockTime = 537 s

Calculating averages

Time = 0.00773

Courant Number mean: 0.0464729 max: 0.303723
DILUPBiCG:  Solving for Ux, Initial residual = 0.00485913, Final residual = 5.88832e-07, No Iterations 1
DILUPBiCG:  Solving for Uy, Initial residual = 0.00239117, Final residual = 1.26188e-06, No Iterations 1
DICPCG:  Solving for p, Initial residual = 0.0495801, Final residual = 0.00226843, No Iterations 12
time step continuity errors : sum local = 1.20801e-07, global = 3.30863e-08, cumulative = -3.65691e-07
DICPCG:  Solving for p, Initial residual = 0.00301954, Final residual = 8.26163e-07, No Iterations 187
time step continuity errors : sum local = 4.41347e-11, global = 8.35228e-14, cumulative = -3.65691e-07
DILUPBiCG:  Solving for k, Initial residual = 0.000250804, Final residual = 7.61439e-08, No Iterations 1
bounding k, min: 0 max: 9.80097 average: 0.099045
ExecutionTime = 536.72 s  ClockTime = 537 s

Calculating averages

Time = 0.00774

Courant Number mean: 0.0463855 max: 0.30285
DILUPBiCG:  Solving for Ux, Initial residual = 0.00606947, Final residual = 7.26422e-07, No Iterations 1
DILUPBiCG:  Solving for Uy, Initial residual = 0.00249093, Final residual = 1.32102e-06, No Iterations 1
DICPCG:  Solving for p, Initial residual = 0.0505616, Final residual = 0.00249572, No Iterations 155
time step continuity errors : sum local = 1.41338e-07, global = -7.0378e-11, cumulative = -3.65761e-07
DICPCG:  Solving for p, Initial residual = 0.0132774, Final residual = 8.55609e-07, No Iterations 191
time step continuity errors : sum local = 2.65537e-11, global = 1.34541e-13, cumulative = -3.65761e-07
DILUPBiCG:  Solving for k, Initial residual = 0.000261702, Final residual = 7.00641e-08, No Iterations 1
bounding k, min: 0 max: 9.79558 average: 0.0990271
ExecutionTime = 537.4 s  ClockTime = 538 s

Calculating averages

Time = 0.00775

Courant Number mean: 0.0463306 max: 0.30206
DILUPBiCG:  Solving for Ux, Initial residual = 0.00298875, Final residual = 3.08731e-07, No Iterations 1
DILUPBiCG:  Solving for Uy, Initial residual = 0.00225765, Final residual = 1.0401e-06, No Iterations 1
DICPCG:  Solving for p, Initial residual = 0.080103, Final residual = 0.00368779, No Iterations 149
time step continuity errors : sum local = 1.1357e-07, global = -7.69963e-10, cumulative = -3.66531e-07
DICPCG:  Solving for p, Initial residual = 0.00566747, Final residual = 8.3958e-07, No Iterations 187
time step continuity errors : sum local = 3.4133e-11, global = -3.09258e-13, cumulative = -3.66531e-07
DILUPBiCG:  Solving for k, Initial residual = 0.000276046, Final residual = 9.242e-08, No Iterations 1
bounding k, min: 0 max: 9.78393 average: 0.0990021
ExecutionTime = 538.08 s  ClockTime = 538 s

Calculating averages

Time = 0.00776

Courant Number mean: 0.0462653 max: 0.301247
DILUPBiCG:  Solving for Ux, Initial residual = 0.00408914, Final residual = 4.99005e-07, No Iterations 1
DILUPBiCG:  Solving for Uy, Initial residual = 0.00230022, Final residual = 1.0872e-06, No Iterations 1
